1

   Abaqus 6.12-1                                  Date 26-oct.-2017   Time 16:08:07
   For use by  under license from Dassault Systemes or its subsidiary.

                                                                                 
                                                                                 
 STEP    1     INCREMENT     1     STEP TIME    0.00    


                        S T E P       1     S T A T I C   A N A L Y S I S


                                                                                          

     AUTOMATIC TIME CONTROL WITH -
          A SUGGESTED INITIAL TIME INCREMENT OF                1.000E-02
          AND A TOTAL TIME PERIOD OF                            1.00    
          THE MINIMUM TIME INCREMENT ALLOWED IS                1.000E-10
          THE MAXIMUM TIME INCREMENT ALLOWED IS                0.100    

     LINEAR EQUATION SOLVER TYPE         DIRECT SPARSE

 CONVERGENCE TOLERANCE PARAMETERS FOR FORCE    
     CRITERION FOR RESIDUAL FORCE     FOR A NONLINEAR PROBLEM          5.000E-03
     CRITERION FOR DISP.    CORRECTION IN A NONLINEAR PROBLEM          1.000E-02
     INITIAL VALUE OF TIME AVERAGE FORCE                               1.000E-02
     AVERAGE FORCE     IS TIME AVERAGE FORCE    
     ALTERNATE CRIT. FOR RESIDUAL FORCE     FOR A NONLINEAR PROBLEM    2.000E-02
     CRITERION FOR ZERO FORCE     RELATIVE TO TIME AVRG. FORCE         1.000E-05
     CRITERION FOR RESIDUAL FORCE     WHEN THERE IS ZERO FLUX          1.000E-05
     CRITERION FOR DISP.    CORRECTION WHEN THERE IS ZERO FLUX         1.000E-03
     CRITERION FOR RESIDUAL FORCE     FOR A LINEAR INCREMENT           1.000E-08
     FIELD CONVERSION RATIO                                             1.00    
     CRITERION FOR ZERO FORCE     REL. TO TIME AVRG. MAX. FORCE        1.000E-05
     CRITERION FOR ZERO DISP.    RELATIVE TO CHARACTERISTIC LENGTH     1.000E-08

 CONVERGENCE TOLERANCE PARAMETERS FOR MOMENT   
     CRITERION FOR RESIDUAL MOMENT    FOR A NONLINEAR PROBLEM          5.000E-03
     CRITERION FOR ROTATION CORRECTION IN A NONLINEAR PROBLEM          1.000E-02
     INITIAL VALUE OF TIME AVERAGE MOMENT                              1.000E-02
     AVERAGE MOMENT    IS TIME AVERAGE MOMENT   
     ALTERNATE CRIT. FOR RESIDUAL MOMENT    FOR A NONLINEAR PROBLEM    2.000E-02
     CRITERION FOR ZERO MOMENT    RELATIVE TO TIME AVRG. MOMENT        1.000E-05
     CRITERION FOR RESIDUAL MOMENT    WHEN THERE IS ZERO FLUX          1.000E-05
     CRITERION FOR ROTATION CORRECTION WHEN THERE IS ZERO FLUX         1.000E-03
     CRITERION FOR RESIDUAL MOMENT    FOR A LINEAR INCREMENT           1.000E-08
     FIELD CONVERSION RATIO                                             1.00    
     CRITERION FOR ZERO MOMENT    REL. TO TIME AVRG. MAX. MOMENT       1.000E-05

     VOLUMETRIC STRAIN COMPATIBILITY TOLERANCE FOR HYBRID SOLIDS       1.000E-05
     AXIAL STRAIN COMPATIBILITY TOLERANCE FOR HYBRID BEAMS             1.000E-05
     TRANS. SHEAR STRAIN COMPATIBILITY TOLERANCE FOR HYBRID BEAMS      1.000E-05
     SOFT CONTACT CONSTRAINT COMPATIBILITY TOLERANCE FOR P>P0          5.000E-03
     SOFT CONTACT CONSTRAINT COMPATIBILITY TOLERANCE FOR P=0.0         0.100    
     CONTACT FORCE ERROR TOLERANCE FOR CONVERT SDI=YES                 1.00    
     DISPLACEMENT COMPATIBILITY TOLERANCE FOR DCOUP ELEMENTS           1.000E-05
     ROTATION COMPATIBILITY TOLERANCE FOR DCOUP ELEMENTS               1.000E-05

 EQUILIBRIUM WILL BE CHECKED FOR SEVERE DISCONTINUITY ITERATIONS

 TIME INCREMENTATION CONTROL PARAMETERS:
     FIRST EQUILIBRIUM ITERATION FOR CONSECUTIVE DIVERGENCE CHECK              4
     EQUILIBRIUM ITERATION AT WHICH LOG. CONVERGENCE RATE CHECK BEGINS         8
     EQUILIBRIUM ITERATION AFTER WHICH ALTERNATE RESIDUAL IS USED              9
     MAXIMUM EQUILIBRIUM ITERATIONS ALLOWED                                   16
     EQUILIBRIUM ITERATION COUNT FOR CUT-BACK IN NEXT INCREMENT               10
     MAXIMUM EQUILIB. ITERS IN TWO INCREMENTS FOR TIME INCREMENT INCREASE      4
     MAXIMUM ITERATIONS FOR SEVERE DISCONTINUITIES                            50
     MAXIMUM CUT-BACKS ALLOWED IN AN INCREMENT                                 5
     MAXIMUM DISCON. ITERS IN TWO INCREMENTS FOR TIME INCREMENT INCREASE      50
     MAXIMUM CONTACT AUGMENTATIONS FOR *SURFACE BEHAVIOR,AUGMENTED LAGRANGE   50
     CUT-BACK FACTOR AFTER DIVERGENCE                                 0.2500    
     CUT-BACK FACTOR FOR TOO SLOW CONVERGENCE                         0.5000    
     CUT-BACK FACTOR AFTER TOO MANY EQUILIBRIUM ITERATIONS            0.7500    
     CUT-BACK FACTOR AFTER TOO MANY SEVERE DISCONTINUITY ITERATIONS   0.2500    
     CUT-BACK FACTOR AFTER PROBLEMS IN ELEMENT ASSEMBLY               0.2500    
     INCREASE FACTOR AFTER TWO INCREMENTS THAT CONVERGE QUICKLY        1.500    
     MAX. TIME INCREMENT INCREASE FACTOR ALLOWED                       1.500    
     MAX. TIME INCREMENT INCREASE FACTOR ALLOWED (DYNAMICS)            1.250    
     MAX. TIME INCREMENT INCREASE FACTOR ALLOWED (DIFFUSION)           2.000    
     MINIMUM TIME INCREMENT RATIO FOR EXTRAPOLATION TO OCCUR          0.1000    
     MAX. RATIO OF TIME INCREMENT TO STABILITY LIMIT                   1.000    
     FRACTION OF STABILITY LIMIT FOR NEW TIME INCREMENT               0.9500    
     TIME INCREMENT INCREASE FACTOR BEFORE A TIME POINT                1.000    
     GLOBAL STABILIZATION CONTROL IS NOT USED

          PRINT OF INCREMENT NUMBER, TIME, ETC., EVERY    1  INCREMENTS

     THE MAXIMUM NUMBER OF INCREMENTS IN THIS STEP IS                     500

          LARGE DISPLACEMENT THEORY WILL BE USED

     LINEAR EXTRAPOLATION WILL BE USED

     CHARACTERISTIC ELEMENT LENGTH      1.67    

     DETAILS REGARDING ACTUAL SOLUTION WAVEFRONT REQUESTED

     DETAILED OUTPUT OF DIAGNOSTICS TO DATABASE REQUESTED

     PRINT OF INCREMENT NUMBER, TIME, ETC., TO THE MESSAGE FILE EVERY     1  INCREMENTS

     EQUATIONS ARE BEING REORDERED TO MINIMIZE WAVEFRONT

     COLLECTING MODEL CONSTRAINT INFORMATION FOR OVERCONSTRAINT CHECKS

     COLLECTING STEP CONSTRAINT INFORMATION FOR OVERCONSTRAINT CHECKS


  INCREMENT     1 STARTS. ATTEMPT NUMBER  1, TIME INCREMENT  1.000E-02

  NUMBER OF EQUATIONS =       42     NUMBER OF FLOATING PT. OPERATIONS =  5.24E+03

     CHECK POINT   START OF SOLVER    

     CHECK POINT  END OF SOLVER       

       ELAPSED USER TIME (SEC)      =   0.0000    
       ELAPSED SYSTEM TIME (SEC)    =   0.0000    
       ELAPSED TOTAL CPU TIME (SEC) =   0.0000    
       ELAPSED WALLCLOCK TIME (SEC) =          0
 

 ***WARNING: SOLVER PROBLEM. NUMERICAL SINGULARITY WHEN PROCESSING NODE 
             PART-1-1.4 D.O.F. 4 RATIO = 4.95054E+15.

               CONVERGENCE CHECKS FOR EQUILIBRIUM ITERATION     1


 AVERAGE FORCE                       809.       TIME AVG. FORCE        809.    
 LARGEST RESIDUAL FORCE             5.140E+03   AT NODE          1   DOF  1
   INSTANCE: PART-1-1                                                                        
 LARGEST INCREMENT OF DISP.         3.927E-02   AT NODE          4   DOF  2
   INSTANCE: PART-1-1                                                                        
 LARGEST CORRECTION TO DISP.        3.927E-02   AT NODE          4   DOF  2
   INSTANCE: PART-1-1                                                                        
          FORCE     EQUILIBRIUM NOT ACHIEVED WITHIN TOLERANCE.

 AVERAGE MOMENT                      8.38       TIME AVG. MOMENT       8.38    
 LARGEST RESIDUAL MOMENT           -3.690E-02   AT NODE          2   DOF  6
   INSTANCE: PART-1-1                                                                        
 LARGEST INCREMENT OF ROTATION      1.571E-02   AT NODE          1   DOF  6
   INSTANCE: PART-1-1                                                                        
 LARGEST CORRECTION TO ROTATION     1.571E-02   AT NODE          1   DOF  6
   INSTANCE: PART-1-1                                                                        
          ROTATION CORRECTION TOO LARGE COMPARED TO ROTATION INCREMENT

  NUMBER OF EQUATIONS =       42     NUMBER OF FLOATING PT. OPERATIONS =  5.24E+03

     CHECK POINT   START OF SOLVER    

     CHECK POINT  END OF SOLVER       

       ELAPSED USER TIME (SEC)      =   0.0000    
       ELAPSED SYSTEM TIME (SEC)    =   0.0000    
       ELAPSED TOTAL CPU TIME (SEC) =   0.0000    
       ELAPSED WALLCLOCK TIME (SEC) =          0

               CONVERGENCE CHECKS FOR EQUILIBRIUM ITERATION     2


 AVERAGE FORCE                      2.827E-02   TIME AVG. FORCE       2.827E-02
 LARGEST RESIDUAL FORCE             0.220       AT NODE          7   DOF  1
   INSTANCE: PART-1-1                                                                        
 LARGEST INCREMENT OF DISP.         3.927E-02   AT NODE          4   DOF  2
   INSTANCE: PART-1-1                                                                        
 LARGEST CORRECTION TO DISP.       -1.999E-04   AT NODE          7   DOF  1
   INSTANCE: PART-1-1                                                                        
          FORCE     EQUILIBRIUM NOT ACHIEVED WITHIN TOLERANCE.

 AVERAGE MOMENT                      8.38       TIME AVG. MOMENT       8.38    
 LARGEST RESIDUAL MOMENT           -1.377E-03   AT NODE          6   DOF  6
   INSTANCE: PART-1-1                                                                        
 LARGEST INCREMENT OF ROTATION      1.571E-02   AT NODE          1   DOF  6
   INSTANCE: PART-1-1                                                                        
 LARGEST CORRECTION TO ROTATION    -4.548E-07   AT NODE          2   DOF  6
   INSTANCE: PART-1-1                                                                        
          THE MOMENT    EQUILIBRIUM EQUATIONS HAVE CONVERGED

  NUMBER OF EQUATIONS =       42     NUMBER OF FLOATING PT. OPERATIONS =  5.24E+03

     CHECK POINT   START OF SOLVER    

     CHECK POINT  END OF SOLVER       

       ELAPSED USER TIME (SEC)      =   0.0000    
       ELAPSED SYSTEM TIME (SEC)    =   0.0000    
       ELAPSED TOTAL CPU TIME (SEC) =   0.0000    
       ELAPSED WALLCLOCK TIME (SEC) =          0
 

 ***WARNING: THE SYSTEM MATRIX HAS 1 NEGATIVE EIGENVALUES.

     IN AN EIGENVALUE EXTRACTION STEP THE NUMBER OF NEGATIVE EIGENVALUES IS 
     EQUAL TO THE NUMBER OF EIGENVALUES BELOW THE CURRENT SHIFT POINT.
     THIS MAY BE USED TO CHECK THAT EIGENVALUES HAVE NOT BEEN MISSED.
     NOTE: THE LANCZOS EIGENSOLVER APPLIES AN INTERNAL SHIFT WHICH WILL
     RESULT IN NEGATIVE EIGENVALUES.

     IN A DIRECT-SOLUTION STEADY-STATE DYNAMIC ANALYSIS, NEGATIVE
     EIGENVALUES ARE EXPECTED. A STATIC ANALYSIS CAN BE USED TO VERIFY THAT THE SYSTEM IS STABLE.

     IN OTHER CASES, NEGATIVE EIGENVALUES MEAN THAT THE SYSTEM MATRIX IS NOT 
     POSITIVE DEFINITE:
     FOR EXAMPLE, A BIFURCATION (BUCKLING) LOAD MAY HAVE BEEN EXCEEDED.

     NEGATIVE EIGENVALUES MAY ALSO OCCUR IF QUADRATIC ELEMENTS ARE
     USED TO DEFINE CONTACT SURFACES.


               CONVERGENCE CHECKS FOR EQUILIBRIUM ITERATION     3


 AVERAGE FORCE                      7.459E-07   TIME AVG. FORCE        5.03    
                                                (FROM MOMENT    FIELD)
 LARGEST RESIDUAL FORCE             3.224E-06   AT NODE          5   DOF  1
   INSTANCE: PART-1-1                                                                        
 LARGEST INCREMENT OF DISP.         3.927E-02   AT NODE          4   DOF  2
   INSTANCE: PART-1-1                                                                        
 LARGEST CORRECTION TO DISP.        1.274E-06   AT NODE          4   DOF  2
   INSTANCE: PART-1-1                                                                        
          THERE IS ZERO FORCE     EVERYWHERE

 AVERAGE MOMENT                      8.38       TIME AVG. MOMENT       8.38    
 LARGEST RESIDUAL MOMENT            8.031E-08   AT NODE          6   DOF  6
   INSTANCE: PART-1-1                                                                        
 LARGEST INCREMENT OF ROTATION      1.571E-02   AT NODE          1   DOF  6
   INSTANCE: PART-1-1                                                                        
 LARGEST CORRECTION TO ROTATION    -4.548E-07   AT NODE          6   DOF  6
   INSTANCE: PART-1-1                                                                        
          THE MOMENT    EQUILIBRIUM EQUATIONS HAVE CONVERGED

 ITERATION SUMMARY FOR THE INCREMENT:   3 TOTAL ITERATIONS, OF WHICH
   0 ARE SEVERE DISCONTINUITY ITERATIONS AND  3 ARE EQUILIBRIUM ITERATIONS.

 TIME INCREMENT COMPLETED  1.000E-02,  FRACTION OF STEP COMPLETED  1.000E-02
 STEP TIME COMPLETED       1.000E-02,  TOTAL TIME COMPLETED        1.000E-02


  INCREMENT     2 STARTS. ATTEMPT NUMBER  1, TIME INCREMENT  1.000E-02

  NUMBER OF EQUATIONS =       42     NUMBER OF FLOATING PT. OPERATIONS =  5.24E+03

     CHECK POINT   START OF SOLVER    

     CHECK POINT  END OF SOLVER       

       ELAPSED USER TIME (SEC)      =   0.0000    
       ELAPSED SYSTEM TIME (SEC)    =   0.0000    
       ELAPSED TOTAL CPU TIME (SEC) =   0.0000    
       ELAPSED WALLCLOCK TIME (SEC) =          0
 

 ***WARNING: THE SYSTEM MATRIX HAS 1 NEGATIVE EIGENVALUES.
             EXPLANATIONS ARE SUGGESTED AFTER THE FIRST OCCURRENCE OF THIS MESSAGE.

               CONVERGENCE CHECKS FOR EQUILIBRIUM ITERATION     1


 AVERAGE FORCE                      0.113       TIME AVG. FORCE       0.113    
 LARGEST RESIDUAL FORCE             0.880       AT NODE          7   DOF  1
   INSTANCE: PART-1-1                                                                        
 LARGEST INCREMENT OF DISP.         3.926E-02   AT NODE          4   DOF  2
   INSTANCE: PART-1-1                                                                        
 LARGEST CORRECTION TO DISP.       -3.998E-04   AT NODE          7   DOF  1
   INSTANCE: PART-1-1                                                                        
          FORCE     EQUILIBRIUM NOT ACHIEVED WITHIN TOLERANCE.

 AVERAGE MOMENT                      50.3       TIME AVG. MOMENT       29.3    
 LARGEST RESIDUAL MOMENT            5.506E-03   AT NODE          2   DOF  6
   INSTANCE: PART-1-1                                                                        
 LARGEST INCREMENT OF ROTATION      1.571E-02   AT NODE          1   DOF  6
   INSTANCE: PART-1-1                                                                        
 LARGEST CORRECTION TO ROTATION    -9.545E-07   AT NODE          2   DOF  6
   INSTANCE: PART-1-1                                                                        
          THE MOMENT    EQUILIBRIUM EQUATIONS HAVE CONVERGED

  NUMBER OF EQUATIONS =       42     NUMBER OF FLOATING PT. OPERATIONS =  5.24E+03

     CHECK POINT   START OF SOLVER    

     CHECK POINT  END OF SOLVER       

       ELAPSED USER TIME (SEC)      =   0.0000    
       ELAPSED SYSTEM TIME (SEC)    =   0.0000    
       ELAPSED TOTAL CPU TIME (SEC) =   0.0000    
       ELAPSED WALLCLOCK TIME (SEC) =          0
 

 ***WARNING: THE SYSTEM MATRIX HAS 1 NEGATIVE EIGENVALUES.
             EXPLANATIONS ARE SUGGESTED AFTER THE FIRST OCCURRENCE OF THIS MESSAGE.

               CONVERGENCE CHECKS FOR EQUILIBRIUM ITERATION     2


 AVERAGE FORCE                      3.817E-06   TIME AVG. FORCE        5.03    
                                                (FROM MOMENT    FIELD)
 LARGEST RESIDUAL FORCE             1.778E-05   AT NODE          5   DOF  1
   INSTANCE: PART-1-1                                                                        
 LARGEST INCREMENT OF DISP.         3.926E-02   AT NODE          4   DOF  2
   INSTANCE: PART-1-1                                                                        
 LARGEST CORRECTION TO DISP.        2.865E-06   AT NODE          4   DOF  2
   INSTANCE: PART-1-1                                                                        
          THERE IS ZERO FORCE     EVERYWHERE

 AVERAGE MOMENT                      50.3       TIME AVG. MOMENT       29.3    
 LARGEST RESIDUAL MOMENT           -6.423E-07   AT NODE          2   DOF  6
   INSTANCE: PART-1-1                                                                        
 LARGEST INCREMENT OF ROTATION      1.571E-02   AT NODE          1   DOF  6
   INSTANCE: PART-1-1                                                                        
 LARGEST CORRECTION TO ROTATION     9.546E-07   AT NODE          2   DOF  6
   INSTANCE: PART-1-1                                                                        
          THE MOMENT    EQUILIBRIUM EQUATIONS HAVE CONVERGED
          TIME INCREMENT MAY NOW INCREASE TO    1.500E-02

 ITERATION SUMMARY FOR THE INCREMENT:   2 TOTAL ITERATIONS, OF WHICH
   0 ARE SEVERE DISCONTINUITY ITERATIONS AND  2 ARE EQUILIBRIUM ITERATIONS.

 TIME INCREMENT COMPLETED  1.000E-02,  FRACTION OF STEP COMPLETED  2.000E-02
 STEP TIME COMPLETED       2.000E-02,  TOTAL TIME COMPLETED        2.000E-02


  INCREMENT     3 STARTS. ATTEMPT NUMBER  1, TIME INCREMENT  1.500E-02

  NUMBER OF EQUATIONS =       42     NUMBER OF FLOATING PT. OPERATIONS =  5.24E+03

     CHECK POINT   START OF SOLVER    

     CHECK POINT  END OF SOLVER       

       ELAPSED USER TIME (SEC)      =   0.0000    
       ELAPSED SYSTEM TIME (SEC)    =   0.0000    
       ELAPSED TOTAL CPU TIME (SEC) =   0.0000    
       ELAPSED WALLCLOCK TIME (SEC) =          0
 

 ***WARNING: THE SYSTEM MATRIX HAS 1 NEGATIVE EIGENVALUES.
             EXPLANATIONS ARE SUGGESTED AFTER THE FIRST OCCURRENCE OF THIS MESSAGE.

               CONVERGENCE CHECKS FOR EQUILIBRIUM ITERATION     1


 AVERAGE FORCE                      0.406       TIME AVG. FORCE       0.406    
 LARGEST RESIDUAL FORCE              3.09       AT NODE          7   DOF  1
   INSTANCE: PART-1-1                                                                        
 LARGEST INCREMENT OF DISP.         5.887E-02   AT NODE          4   DOF  2
   INSTANCE: PART-1-1                                                                        
 LARGEST CORRECTION TO DISP.        7.492E-04   AT NODE          1   DOF  1
   INSTANCE: PART-1-1                                                                        
          FORCE     EQUILIBRIUM NOT ACHIEVED WITHIN TOLERANCE.

 AVERAGE MOMENT                      88.0       TIME AVG. MOMENT       48.9    
 LARGEST RESIDUAL MOMENT            1.805E-02   AT NODE          2   DOF  6
   INSTANCE: PART-1-1                                                                        
 LARGEST INCREMENT OF ROTATION      2.356E-02   AT NODE          1   DOF  6
   INSTANCE: PART-1-1                                                                        
 LARGEST CORRECTION TO ROTATION     3.128E-06   AT NODE          6   DOF  6
   INSTANCE: PART-1-1                                                                        
          THE MOMENT    EQUILIBRIUM EQUATIONS HAVE CONVERGED

  NUMBER OF EQUATIONS =       42     NUMBER OF FLOATING PT. OPERATIONS =  5.24E+03

     CHECK POINT   START OF SOLVER    

     CHECK POINT  END OF SOLVER       

       ELAPSED USER TIME (SEC)      =   0.0000    
       ELAPSED SYSTEM TIME (SEC)    =   0.0000    
       ELAPSED TOTAL CPU TIME (SEC) =   0.0000    
       ELAPSED WALLCLOCK TIME (SEC) =          0
 

 ***WARNING: THE SYSTEM MATRIX HAS 1 NEGATIVE EIGENVALUES.
             EXPLANATIONS ARE SUGGESTED AFTER THE FIRST OCCURRENCE OF THIS MESSAGE.

               CONVERGENCE CHECKS FOR EQUILIBRIUM ITERATION     2


 AVERAGE FORCE                      4.161E-05   TIME AVG. FORCE        17.6    
                                                (FROM MOMENT    FIELD)
 LARGEST RESIDUAL FORCE            -1.910E-04   AT NODE          3   DOF  1
   INSTANCE: PART-1-1                                                                        
 LARGEST INCREMENT OF DISP.         5.888E-02   AT NODE          4   DOF  2
   INSTANCE: PART-1-1                                                                        
 LARGEST CORRECTION TO DISP.        9.391E-06   AT NODE          4   DOF  2
   INSTANCE: PART-1-1                                                                        
          ALL DISP.    CORRECTIONS ARE ZERO

 AVERAGE MOMENT                      88.0       TIME AVG. MOMENT       48.9    
 LARGEST RESIDUAL MOMENT           -3.953E-06   AT NODE          2   DOF  6
   INSTANCE: PART-1-1                                                                        
 LARGEST INCREMENT OF ROTATION      2.356E-02   AT NODE          1   DOF  6
   INSTANCE: PART-1-1                                                                        
 LARGEST CORRECTION TO ROTATION    -3.129E-06   AT NODE          6   DOF  6
   INSTANCE: PART-1-1                                                                        
          THE MOMENT    EQUILIBRIUM EQUATIONS HAVE CONVERGED
          TIME INCREMENT MAY NOW INCREASE TO    2.250E-02

 ITERATION SUMMARY FOR THE INCREMENT:   2 TOTAL ITERATIONS, OF WHICH
   0 ARE SEVERE DISCONTINUITY ITERATIONS AND  2 ARE EQUILIBRIUM ITERATIONS.

 TIME INCREMENT COMPLETED  1.500E-02,  FRACTION OF STEP COMPLETED  3.500E-02
 STEP TIME COMPLETED       3.500E-02,  TOTAL TIME COMPLETED        3.500E-02


  INCREMENT     4 STARTS. ATTEMPT NUMBER  1, TIME INCREMENT  2.250E-02

  NUMBER OF EQUATIONS =       42     NUMBER OF FLOATING PT. OPERATIONS =  5.24E+03

     CHECK POINT   START OF SOLVER    

     CHECK POINT  END OF SOLVER       

       ELAPSED USER TIME (SEC)      =   0.0000    
       ELAPSED SYSTEM TIME (SEC)    =   0.0000    
       ELAPSED TOTAL CPU TIME (SEC) =   0.0000    
       ELAPSED WALLCLOCK TIME (SEC) =          0
 

 ***WARNING: THE SYSTEM MATRIX HAS 1 NEGATIVE EIGENVALUES.
             EXPLANATIONS ARE SUGGESTED AFTER THE FIRST OCCURRENCE OF THIS MESSAGE.

               CONVERGENCE CHECKS FOR EQUILIBRIUM ITERATION     1


 AVERAGE FORCE                       2.10       TIME AVG. FORCE        2.10    
 LARGEST RESIDUAL FORCE              15.6       AT NODE          7   DOF  1
   INSTANCE: PART-1-1                                                                        
 LARGEST INCREMENT OF DISP.         8.821E-02   AT NODE          4   DOF  2
   INSTANCE: PART-1-1                                                                        
 LARGEST CORRECTION TO DISP.       -1.684E-03   AT NODE          7   DOF  1
   INSTANCE: PART-1-1                                                                        
          FORCE     EQUILIBRIUM NOT ACHIEVED WITHIN TOLERANCE.

 AVERAGE MOMENT                      145.       TIME AVG. MOMENT       72.8    
 LARGEST RESIDUAL MOMENT            6.656E-02   AT NODE          2   DOF  6
   INSTANCE: PART-1-1                                                                        
 LARGEST INCREMENT OF ROTATION      3.534E-02   AT NODE          1   DOF  6
   INSTANCE: PART-1-1                                                                        
 LARGEST CORRECTION TO ROTATION     1.152E-05   AT NODE          6   DOF  6
   INSTANCE: PART-1-1                                                                        
          THE MOMENT    EQUILIBRIUM EQUATIONS HAVE CONVERGED

  NUMBER OF EQUATIONS =       42     NUMBER OF FLOATING PT. OPERATIONS =  5.24E+03

     CHECK POINT   START OF SOLVER    

     CHECK POINT  END OF SOLVER       

       ELAPSED USER TIME (SEC)      =   0.0000    
       ELAPSED SYSTEM TIME (SEC)    =   0.0000    
       ELAPSED TOTAL CPU TIME (SEC) =   0.0000    
       ELAPSED WALLCLOCK TIME (SEC) =          0
 

 ***WARNING: THE SYSTEM MATRIX HAS 1 NEGATIVE EIGENVALUES.
             EXPLANATIONS ARE SUGGESTED AFTER THE FIRST OCCURRENCE OF THIS MESSAGE.

               CONVERGENCE CHECKS FOR EQUILIBRIUM ITERATION     2


 AVERAGE FORCE                      5.780E-04   TIME AVG. FORCE       5.780E-04
 LARGEST RESIDUAL FORCE             2.594E-03   AT NODE          5   DOF  1
   INSTANCE: PART-1-1                                                                        
 LARGEST INCREMENT OF DISP.         8.825E-02   AT NODE          4   DOF  2
   INSTANCE: PART-1-1                                                                        
 LARGEST CORRECTION TO DISP.        3.461E-05   AT NODE          4   DOF  2
   INSTANCE: PART-1-1                                                                        
          FORCE     EQUILIBRIUM NOT ACHIEVED WITHIN TOLERANCE.

 AVERAGE MOMENT                      145.       TIME AVG. MOMENT       72.8    
 LARGEST RESIDUAL MOMENT           -3.288E-05   AT NODE          2   DOF  6
   INSTANCE: PART-1-1                                                                        
 LARGEST INCREMENT OF ROTATION      3.534E-02   AT NODE          1   DOF  6
   INSTANCE: PART-1-1                                                                        
 LARGEST CORRECTION TO ROTATION    -1.153E-05   AT NODE          6   DOF  6
   INSTANCE: PART-1-1                                                                        
          THE MOMENT    EQUILIBRIUM EQUATIONS HAVE CONVERGED

  NUMBER OF EQUATIONS =       42     NUMBER OF FLOATING PT. OPERATIONS =  5.24E+03

     CHECK POINT   START OF SOLVER    

     CHECK POINT  END OF SOLVER       

       ELAPSED USER TIME (SEC)      =   0.0000    
       ELAPSED SYSTEM TIME (SEC)    =   0.0000    
       ELAPSED TOTAL CPU TIME (SEC) =   0.0000    
       ELAPSED WALLCLOCK TIME (SEC) =          0
 

 ***WARNING: THE SYSTEM MATRIX HAS 1 NEGATIVE EIGENVALUES.
             EXPLANATIONS ARE SUGGESTED AFTER THE FIRST OCCURRENCE OF THIS MESSAGE.

               CONVERGENCE CHECKS FOR EQUILIBRIUM ITERATION     3


 AVERAGE FORCE                      4.770E-09   TIME AVG. FORCE        29.3    
                                                (FROM MOMENT    FIELD)
 LARGEST RESIDUAL FORCE             3.986E-08   AT NODE          6   DOF  1
   INSTANCE: PART-1-1                                                                        
 LARGEST INCREMENT OF DISP.         8.825E-02   AT NODE          4   DOF  2
   INSTANCE: PART-1-1                                                                        
 LARGEST CORRECTION TO DISP.       -5.528E-08   AT NODE          4   DOF  2
   INSTANCE: PART-1-1                                                                        
          THERE IS ZERO FORCE     EVERYWHERE

 AVERAGE MOMENT                      145.       TIME AVG. MOMENT       72.8    
 LARGEST RESIDUAL MOMENT           -6.259E-09   AT NODE          5   DOF  6
   INSTANCE: PART-1-1                                                                        
 LARGEST INCREMENT OF ROTATION      3.534E-02   AT NODE          1   DOF  6
   INSTANCE: PART-1-1                                                                        
 LARGEST CORRECTION TO ROTATION    -1.900E-08   AT NODE          2   DOF  6
   INSTANCE: PART-1-1                                                                        
          THE MOMENT    EQUILIBRIUM EQUATIONS HAVE CONVERGED
          TIME INCREMENT MAY NOW INCREASE TO    3.375E-02

 ITERATION SUMMARY FOR THE INCREMENT:   3 TOTAL ITERATIONS, OF WHICH
   0 ARE SEVERE DISCONTINUITY ITERATIONS AND  3 ARE EQUILIBRIUM ITERATIONS.

 TIME INCREMENT COMPLETED  2.250E-02,  FRACTION OF STEP COMPLETED  5.750E-02
 STEP TIME COMPLETED       5.750E-02,  TOTAL TIME COMPLETED        5.750E-02


  INCREMENT     5 STARTS. ATTEMPT NUMBER  1, TIME INCREMENT  3.375E-02

  NUMBER OF EQUATIONS =       42     NUMBER OF FLOATING PT. OPERATIONS =  5.24E+03

     CHECK POINT   START OF SOLVER    

     CHECK POINT  END OF SOLVER       

       ELAPSED USER TIME (SEC)      =   0.0000    
       ELAPSED SYSTEM TIME (SEC)    =   0.0000    
       ELAPSED TOTAL CPU TIME (SEC) =   0.0000    
       ELAPSED WALLCLOCK TIME (SEC) =          0
 

 ***WARNING: THE SYSTEM MATRIX HAS 1 NEGATIVE EIGENVALUES.
             EXPLANATIONS ARE SUGGESTED AFTER THE FIRST OCCURRENCE OF THIS MESSAGE.

               CONVERGENCE CHECKS FOR EQUILIBRIUM ITERATION     1


 AVERAGE FORCE                       11.0       TIME AVG. FORCE        11.0    
 LARGEST RESIDUAL FORCE             -78.6       AT NODE          1   DOF  1
   INSTANCE: PART-1-1                                                                        
 LARGEST INCREMENT OF DISP.         0.132       AT NODE          4   DOF  2
   INSTANCE: PART-1-1                                                                        
 LARGEST CORRECTION TO DISP.        3.778E-03   AT NODE          1   DOF  1
   INSTANCE: PART-1-1                                                                        
          FORCE     EQUILIBRIUM NOT ACHIEVED WITHIN TOLERANCE.

 AVERAGE MOMENT                      229.       TIME AVG. MOMENT       104.    
 LARGEST RESIDUAL MOMENT           -0.236       AT NODE          6   DOF  6
   INSTANCE: PART-1-1                                                                        
 LARGEST INCREMENT OF ROTATION      5.301E-02   AT NODE          1   DOF  6
   INSTANCE: PART-1-1                                                                        
 LARGEST CORRECTION TO ROTATION     4.074E-05   AT NODE          6   DOF  6
   INSTANCE: PART-1-1                                                                        
          THE MOMENT    EQUILIBRIUM EQUATIONS HAVE CONVERGED

  NUMBER OF EQUATIONS =       42     NUMBER OF FLOATING PT. OPERATIONS =  5.24E+03

     CHECK POINT   START OF SOLVER    

     CHECK POINT  END OF SOLVER       

       ELAPSED USER TIME (SEC)      =   0.0000    
       ELAPSED SYSTEM TIME (SEC)    =   0.0000    
       ELAPSED TOTAL CPU TIME (SEC) =   0.0000    
       ELAPSED WALLCLOCK TIME (SEC) =          0
 

 ***WARNING: THE SYSTEM MATRIX HAS 1 NEGATIVE EIGENVALUES.
             EXPLANATIONS ARE SUGGESTED AFTER THE FIRST OCCURRENCE OF THIS MESSAGE.

               CONVERGENCE CHECKS FOR EQUILIBRIUM ITERATION     2


 AVERAGE FORCE                      7.552E-03   TIME AVG. FORCE       7.552E-03
 LARGEST RESIDUAL FORCE            -3.282E-02   AT NODE          3   DOF  1
   INSTANCE: PART-1-1                                                                        
 LARGEST INCREMENT OF DISP.         0.132       AT NODE          4   DOF  2
   INSTANCE: PART-1-1                                                                        
 LARGEST CORRECTION TO DISP.        1.231E-04   AT NODE          4   DOF  2
   INSTANCE: PART-1-1                                                                        
          FORCE     EQUILIBRIUM NOT ACHIEVED WITHIN TOLERANCE.

 AVERAGE MOMENT                      229.       TIME AVG. MOMENT       104.    
 LARGEST RESIDUAL MOMENT           -2.644E-04   AT NODE          2   DOF  6
   INSTANCE: PART-1-1                                                                        
 LARGEST INCREMENT OF ROTATION      5.301E-02   AT NODE          1   DOF  6
   INSTANCE: PART-1-1                                                                        
 LARGEST CORRECTION TO ROTATION    -4.104E-05   AT NODE          6   DOF  6
   INSTANCE: PART-1-1                                                                        
          THE MOMENT    EQUILIBRIUM EQUATIONS HAVE CONVERGED

  NUMBER OF EQUATIONS =       42     NUMBER OF FLOATING PT. OPERATIONS =  5.24E+03

     CHECK POINT   START OF SOLVER    

     CHECK POINT  END OF SOLVER       

       ELAPSED USER TIME (SEC)      =   0.0000    
       ELAPSED SYSTEM TIME (SEC)    =   0.0000    
       ELAPSED TOTAL CPU TIME (SEC) =   0.0000    
       ELAPSED WALLCLOCK TIME (SEC) =          0
 

 ***WARNING: THE SYSTEM MATRIX HAS 1 NEGATIVE EIGENVALUES.
             EXPLANATIONS ARE SUGGESTED AFTER THE FIRST OCCURRENCE OF THIS MESSAGE.

               CONVERGENCE CHECKS FOR EQUILIBRIUM ITERATION     3


 AVERAGE FORCE                      3.688E-07   TIME AVG. FORCE        43.7    
                                                (FROM MOMENT    FIELD)
 LARGEST RESIDUAL FORCE            -1.553E-06   AT NODE          3   DOF  1
   INSTANCE: PART-1-1                                                                        
 LARGEST INCREMENT OF DISP.         0.132       AT NODE          4   DOF  2
   INSTANCE: PART-1-1                                                                        
 LARGEST CORRECTION TO DISP.       -8.621E-07   AT NODE          4   DOF  2
   INSTANCE: PART-1-1                                                                        
          THERE IS ZERO FORCE     EVERYWHERE

 AVERAGE MOMENT                      229.       TIME AVG. MOMENT       104.    
 LARGEST RESIDUAL MOMENT            1.259E-07   AT NODE          3   DOF  6
   INSTANCE: PART-1-1                                                                        
 LARGEST INCREMENT OF ROTATION      5.301E-02   AT NODE          1   DOF  6
   INSTANCE: PART-1-1                                                                        
 LARGEST CORRECTION TO ROTATION    -2.929E-07   AT NODE          2   DOF  6
   INSTANCE: PART-1-1                                                                        
          THE MOMENT    EQUILIBRIUM EQUATIONS HAVE CONVERGED
          TIME INCREMENT MAY NOW INCREASE TO    5.063E-02

 ITERATION SUMMARY FOR THE INCREMENT:   3 TOTAL ITERATIONS, OF WHICH
   0 ARE SEVERE DISCONTINUITY ITERATIONS AND  3 ARE EQUILIBRIUM ITERATIONS.

 TIME INCREMENT COMPLETED  3.375E-02,  FRACTION OF STEP COMPLETED  9.125E-02
 STEP TIME COMPLETED       9.125E-02,  TOTAL TIME COMPLETED        9.125E-02


  INCREMENT     6 STARTS. ATTEMPT NUMBER  1, TIME INCREMENT  5.063E-02

  NUMBER OF EQUATIONS =       42     NUMBER OF FLOATING PT. OPERATIONS =  5.24E+03

     CHECK POINT   START OF SOLVER    

     CHECK POINT  END OF SOLVER       

       ELAPSED USER TIME (SEC)      =   0.0000    
       ELAPSED SYSTEM TIME (SEC)    =   0.0000    
       ELAPSED TOTAL CPU TIME (SEC) =   0.0000    
       ELAPSED WALLCLOCK TIME (SEC) =          0
 

 ***WARNING: THE SYSTEM MATRIX HAS 1 NEGATIVE EIGENVALUES.
             EXPLANATIONS ARE SUGGESTED AFTER THE FIRST OCCURRENCE OF THIS MESSAGE.

               CONVERGENCE CHECKS FOR EQUILIBRIUM ITERATION     1


 AVERAGE FORCE                       58.2       TIME AVG. FORCE        58.2    
 LARGEST RESIDUAL FORCE             -392.       AT NODE          1   DOF  1
   INSTANCE: PART-1-1                                                                        
 LARGEST INCREMENT OF DISP.         0.197       AT NODE          4   DOF  2
   INSTANCE: PART-1-1                                                                        
 LARGEST CORRECTION TO DISP.        8.446E-03   AT NODE          1   DOF  1
   INSTANCE: PART-1-1                                                                        
          FORCE     EQUILIBRIUM NOT ACHIEVED WITHIN TOLERANCE.

 AVERAGE MOMENT                      357.       TIME AVG. MOMENT       146.    
 LARGEST RESIDUAL MOMENT            0.817       AT NODE          2   DOF  6
   INSTANCE: PART-1-1                                                                        
 LARGEST INCREMENT OF ROTATION      7.952E-02   AT NODE          1   DOF  6
   INSTANCE: PART-1-1                                                                        
 LARGEST CORRECTION TO ROTATION     1.397E-04   AT NODE          6   DOF  6
   INSTANCE: PART-1-1                                                                        
          MOMENT    EQUILIBRIUM NOT ACHIEVED WITHIN TOLERANCE.

  NUMBER OF EQUATIONS =       42     NUMBER OF FLOATING PT. OPERATIONS =  5.24E+03

     CHECK POINT   START OF SOLVER    

     CHECK POINT  END OF SOLVER       

       ELAPSED USER TIME (SEC)      =   0.0000    
       ELAPSED SYSTEM TIME (SEC)    =   0.0000    
       ELAPSED TOTAL CPU TIME (SEC) =   0.0000    
       ELAPSED WALLCLOCK TIME (SEC) =          0
 

 ***WARNING: THE SYSTEM MATRIX HAS 1 NEGATIVE EIGENVALUES.
             EXPLANATIONS ARE SUGGESTED AFTER THE FIRST OCCURRENCE OF THIS MESSAGE.

               CONVERGENCE CHECKS FOR EQUILIBRIUM ITERATION     2


 AVERAGE FORCE                      9.776E-02   TIME AVG. FORCE       9.776E-02
 LARGEST RESIDUAL FORCE            -0.406       AT NODE          3   DOF  1
   INSTANCE: PART-1-1                                                                        
 LARGEST INCREMENT OF DISP.         0.197       AT NODE          4   DOF  2
   INSTANCE: PART-1-1                                                                        
 LARGEST CORRECTION TO DISP.        4.334E-04   AT NODE          4   DOF  2
   INSTANCE: PART-1-1                                                                        
          FORCE     EQUILIBRIUM NOT ACHIEVED WITHIN TOLERANCE.

 AVERAGE MOMENT                      357.       TIME AVG. MOMENT       146.    
 LARGEST RESIDUAL MOMENT           -2.085E-03   AT NODE          2   DOF  6
   INSTANCE: PART-1-1                                                                        
 LARGEST INCREMENT OF ROTATION      7.952E-02   AT NODE          1   DOF  6
   INSTANCE: PART-1-1                                                                        
 LARGEST CORRECTION TO ROTATION    -1.445E-04   AT NODE          6   DOF  6
   INSTANCE: PART-1-1                                                                        
          THE MOMENT    EQUILIBRIUM EQUATIONS HAVE CONVERGED

  NUMBER OF EQUATIONS =       42     NUMBER OF FLOATING PT. OPERATIONS =  5.24E+03

     CHECK POINT   START OF SOLVER    

     CHECK POINT  END OF SOLVER       

       ELAPSED USER TIME (SEC)      =   0.0000    
       ELAPSED SYSTEM TIME (SEC)    =   0.0000    
       ELAPSED TOTAL CPU TIME (SEC) =   0.0000    
       ELAPSED WALLCLOCK TIME (SEC) =          0
 

 ***WARNING: THE SYSTEM MATRIX HAS 1 NEGATIVE EIGENVALUES.
             EXPLANATIONS ARE SUGGESTED AFTER THE FIRST OCCURRENCE OF THIS MESSAGE.

               CONVERGENCE CHECKS FOR EQUILIBRIUM ITERATION     3


 AVERAGE FORCE                      1.049E-04   TIME AVG. FORCE        62.5    
                                                (FROM MOMENT    FIELD)
 LARGEST RESIDUAL FORCE            -4.250E-04   AT NODE          3   DOF  1
   INSTANCE: PART-1-1                                                                        
 LARGEST INCREMENT OF DISP.         0.197       AT NODE          4   DOF  2
   INSTANCE: PART-1-1                                                                        
 LARGEST CORRECTION TO DISP.       -1.423E-05   AT NODE          4   DOF  2
   INSTANCE: PART-1-1                                                                        
          THERE IS ZERO FORCE     EVERYWHERE

 AVERAGE MOMENT                      357.       TIME AVG. MOMENT       146.    
 LARGEST RESIDUAL MOMENT            2.432E-06   AT NODE          3   DOF  6
   INSTANCE: PART-1-1                                                                        
 LARGEST INCREMENT OF ROTATION      7.952E-02   AT NODE          1   DOF  6
   INSTANCE: PART-1-1                                                                        
 LARGEST CORRECTION TO ROTATION    -4.823E-06   AT NODE          2   DOF  6
   INSTANCE: PART-1-1                                                                        
          THE MOMENT    EQUILIBRIUM EQUATIONS HAVE CONVERGED
          TIME INCREMENT MAY NOW INCREASE TO    7.594E-02

 ITERATION SUMMARY FOR THE INCREMENT:   3 TOTAL ITERATIONS, OF WHICH
   0 ARE SEVERE DISCONTINUITY ITERATIONS AND  3 ARE EQUILIBRIUM ITERATIONS.

 TIME INCREMENT COMPLETED  5.063E-02,  FRACTION OF STEP COMPLETED  0.142    
 STEP TIME COMPLETED       0.142    ,  TOTAL TIME COMPLETED        0.142    


  INCREMENT     7 STARTS. ATTEMPT NUMBER  1, TIME INCREMENT  7.594E-02

  NUMBER OF EQUATIONS =       42     NUMBER OF FLOATING PT. OPERATIONS =  5.24E+03

     CHECK POINT   START OF SOLVER    

     CHECK POINT  END OF SOLVER       

       ELAPSED USER TIME (SEC)      =   0.0000    
       ELAPSED SYSTEM TIME (SEC)    =   0.0000    
       ELAPSED TOTAL CPU TIME (SEC) =   0.0000    
       ELAPSED WALLCLOCK TIME (SEC) =          0
 

 ***WARNING: THE SYSTEM MATRIX HAS 1 NEGATIVE EIGENVALUES.
             EXPLANATIONS ARE SUGGESTED AFTER THE FIRST OCCURRENCE OF THIS MESSAGE.

               CONVERGENCE CHECKS FOR EQUILIBRIUM ITERATION     1


 AVERAGE FORCE                       310.       TIME AVG. FORCE        310.    
 LARGEST RESIDUAL FORCE             1.922E+03   AT NODE          7   DOF  1
   INSTANCE: PART-1-1                                                                        
 LARGEST INCREMENT OF DISP.         0.291       AT NODE          4   DOF  2
   INSTANCE: PART-1-1                                                                        
 LARGEST CORRECTION TO DISP.        1.872E-02   AT NODE          1   DOF  1
   INSTANCE: PART-1-1                                                                        
          FORCE     EQUILIBRIUM NOT ACHIEVED WITHIN TOLERANCE.

 AVERAGE MOMENT                      547.       TIME AVG. MOMENT       203.    
 LARGEST RESIDUAL MOMENT            -2.75       AT NODE          6   DOF  6
   INSTANCE: PART-1-1                                                                        
 LARGEST INCREMENT OF ROTATION      0.119       AT NODE          1   DOF  6
   INSTANCE: PART-1-1                                                                        
 LARGEST CORRECTION TO ROTATION    -4.607E-04   AT NODE          2   DOF  6
   INSTANCE: PART-1-1                                                                        
          MOMENT    EQUILIBRIUM NOT ACHIEVED WITHIN TOLERANCE.

  NUMBER OF EQUATIONS =       42     NUMBER OF FLOATING PT. OPERATIONS =  5.24E+03

     CHECK POINT   START OF SOLVER    

     CHECK POINT  END OF SOLVER       

       ELAPSED USER TIME (SEC)      =   0.0000    
       ELAPSED SYSTEM TIME (SEC)    =   0.0000    
       ELAPSED TOTAL CPU TIME (SEC) =   0.0000    
       ELAPSED WALLCLOCK TIME (SEC) =          0
 

 ***WARNING: THE SYSTEM MATRIX HAS 1 NEGATIVE EIGENVALUES.
             EXPLANATIONS ARE SUGGESTED AFTER THE FIRST OCCURRENCE OF THIS MESSAGE.

               CONVERGENCE CHECKS FOR EQUILIBRIUM ITERATION     2


 AVERAGE FORCE                       1.50       TIME AVG. FORCE        1.50    
 LARGEST RESIDUAL FORCE             -5.85       AT NODE          3   DOF  1
   INSTANCE: PART-1-1                                                                        
 LARGEST INCREMENT OF DISP.         0.293       AT NODE          4   DOF  2
   INSTANCE: PART-1-1                                                                        
 LARGEST CORRECTION TO DISP.        1.648E-03   AT NODE          4   DOF  2
   INSTANCE: PART-1-1                                                                        
          FORCE     EQUILIBRIUM NOT ACHIEVED WITHIN TOLERANCE.

 AVERAGE MOMENT                      547.       TIME AVG. MOMENT       203.    
 LARGEST RESIDUAL MOMENT            1.632E-02   AT NODE          6   DOF  6
   INSTANCE: PART-1-1                                                                        
 LARGEST INCREMENT OF ROTATION      0.119       AT NODE          1   DOF  6
   INSTANCE: PART-1-1                                                                        
 LARGEST CORRECTION TO ROTATION     5.513E-04   AT NODE          2   DOF  6
   INSTANCE: PART-1-1                                                                        
          THE MOMENT    EQUILIBRIUM EQUATIONS HAVE CONVERGED

  NUMBER OF EQUATIONS =       42     NUMBER OF FLOATING PT. OPERATIONS =  5.24E+03

     CHECK POINT   START OF SOLVER    

     CHECK POINT  END OF SOLVER       

       ELAPSED USER TIME (SEC)      =   0.0000    
       ELAPSED SYSTEM TIME (SEC)    =   0.0000    
       ELAPSED TOTAL CPU TIME (SEC) =   0.0000    
       ELAPSED WALLCLOCK TIME (SEC) =          0
 

 ***WARNING: THE SYSTEM MATRIX HAS 1 NEGATIVE EIGENVALUES.
             EXPLANATIONS ARE SUGGESTED AFTER THE FIRST OCCURRENCE OF THIS MESSAGE.

               CONVERGENCE CHECKS FOR EQUILIBRIUM ITERATION     3


 AVERAGE FORCE                      3.897E-02   TIME AVG. FORCE       3.897E-02
 LARGEST RESIDUAL FORCE             0.148       AT NODE          5   DOF  1
   INSTANCE: PART-1-1                                                                        
 LARGEST INCREMENT OF DISP.         0.293       AT NODE          4   DOF  2
   INSTANCE: PART-1-1                                                                        
 LARGEST CORRECTION TO DISP.       -2.644E-04   AT NODE          4   DOF  2
   INSTANCE: PART-1-1                                                                        
          FORCE     EQUILIBRIUM NOT ACHIEVED WITHIN TOLERANCE.

 AVERAGE MOMENT                      547.       TIME AVG. MOMENT       203.    
 LARGEST RESIDUAL MOMENT           -5.280E-05   AT NODE          5   DOF  6
   INSTANCE: PART-1-1                                                                        
 LARGEST INCREMENT OF ROTATION      0.119       AT NODE          1   DOF  6
   INSTANCE: PART-1-1                                                                        
 LARGEST CORRECTION TO ROTATION    -9.052E-05   AT NODE          2   DOF  6
   INSTANCE: PART-1-1                                                                        
          THE MOMENT    EQUILIBRIUM EQUATIONS HAVE CONVERGED

  NUMBER OF EQUATIONS =       42     NUMBER OF FLOATING PT. OPERATIONS =  5.24E+03

     CHECK POINT   START OF SOLVER    

     CHECK POINT  END OF SOLVER       

       ELAPSED USER TIME (SEC)      =   0.0000    
       ELAPSED SYSTEM TIME (SEC)    =   0.0000    
       ELAPSED TOTAL CPU TIME (SEC) =   0.0000    
       ELAPSED WALLCLOCK TIME (SEC) =          0
 

 ***WARNING: THE SYSTEM MATRIX HAS 1 NEGATIVE EIGENVALUES.
             EXPLANATIONS ARE SUGGESTED AFTER THE FIRST OCCURRENCE OF THIS MESSAGE.

               CONVERGENCE CHECKS FOR EQUILIBRIUM ITERATION     4


 AVERAGE FORCE                      8.645E-08   TIME AVG. FORCE        87.7    
                                                (FROM MOMENT    FIELD)
 LARGEST RESIDUAL FORCE            -3.892E-07   AT NODE          3   DOF  1
   INSTANCE: PART-1-1                                                                        
 LARGEST INCREMENT OF DISP.         0.293       AT NODE          4   DOF  2
   INSTANCE: PART-1-1                                                                        
 LARGEST CORRECTION TO DISP.       -3.958E-07   AT NODE          4   DOF  2
   INSTANCE: PART-1-1                                                                        
          THERE IS ZERO FORCE     EVERYWHERE

 AVERAGE MOMENT                      547.       TIME AVG. MOMENT       203.    
 LARGEST RESIDUAL MOMENT           -1.376E-06   AT NODE          5   DOF  6
   INSTANCE: PART-1-1                                                                        
 LARGEST INCREMENT OF ROTATION      0.119       AT NODE          1   DOF  6
   INSTANCE: PART-1-1                                                                        
 LARGEST CORRECTION TO ROTATION     1.188E-07   AT NODE          6   DOF  6
   INSTANCE: PART-1-1                                                                        
          THE MOMENT    EQUILIBRIUM EQUATIONS HAVE CONVERGED
          TIME INCREMENT MAY NOW INCREASE TO    0.100    

 ITERATION SUMMARY FOR THE INCREMENT:   4 TOTAL ITERATIONS, OF WHICH
   0 ARE SEVERE DISCONTINUITY ITERATIONS AND  4 ARE EQUILIBRIUM ITERATIONS.

 TIME INCREMENT COMPLETED  7.594E-02,  FRACTION OF STEP COMPLETED  0.218    
 STEP TIME COMPLETED       0.218    ,  TOTAL TIME COMPLETED        0.218    


  INCREMENT     8 STARTS. ATTEMPT NUMBER  1, TIME INCREMENT  0.100    

  NUMBER OF EQUATIONS =       42     NUMBER OF FLOATING PT. OPERATIONS =  5.24E+03

     CHECK POINT   START OF SOLVER    

     CHECK POINT  END OF SOLVER       

       ELAPSED USER TIME (SEC)      =   0.0000    
       ELAPSED SYSTEM TIME (SEC)    =   0.0000    
       ELAPSED TOTAL CPU TIME (SEC) =   0.0000    
       ELAPSED WALLCLOCK TIME (SEC) =          0
 

 ***WARNING: THE SYSTEM MATRIX HAS 1 NEGATIVE EIGENVALUES.
             EXPLANATIONS ARE SUGGESTED AFTER THE FIRST OCCURRENCE OF THIS MESSAGE.

               CONVERGENCE CHECKS FOR EQUILIBRIUM ITERATION     1


 AVERAGE FORCE                      1.088E+03   TIME AVG. FORCE       1.088E+03
 LARGEST RESIDUAL FORCE            -6.063E+03   AT NODE          1   DOF  1
   INSTANCE: PART-1-1                                                                        
 LARGEST INCREMENT OF DISP.         0.373       AT NODE          4   DOF  2
   INSTANCE: PART-1-1                                                                        
 LARGEST CORRECTION TO DISP.       -3.322E-02   AT NODE          7   DOF  1
   INSTANCE: PART-1-1                                                                        
          FORCE     EQUILIBRIUM NOT ACHIEVED WITHIN TOLERANCE.

 AVERAGE MOMENT                      799.       TIME AVG. MOMENT       278.    
 LARGEST RESIDUAL MOMENT            -7.10       AT NODE          6   DOF  6
   INSTANCE: PART-1-1                                                                        
 LARGEST INCREMENT OF ROTATION      0.157       AT NODE          1   DOF  6
   INSTANCE: PART-1-1                                                                        
 LARGEST CORRECTION TO ROTATION     1.156E-03   AT NODE          6   DOF  6
   INSTANCE: PART-1-1                                                                        
          MOMENT    EQUILIBRIUM NOT ACHIEVED WITHIN TOLERANCE.

  NUMBER OF EQUATIONS =       42     NUMBER OF FLOATING PT. OPERATIONS =  5.24E+03

     CHECK POINT   START OF SOLVER    

     CHECK POINT  END OF SOLVER       

       ELAPSED USER TIME (SEC)      =   0.0000    
       ELAPSED SYSTEM TIME (SEC)    =   0.0000    
       ELAPSED TOTAL CPU TIME (SEC) =   0.0000    
       ELAPSED WALLCLOCK TIME (SEC) =          0
 

 ***WARNING: THE SYSTEM MATRIX HAS 1 NEGATIVE EIGENVALUES.
             EXPLANATIONS ARE SUGGESTED AFTER THE FIRST OCCURRENCE OF THIS MESSAGE.

               CONVERGENCE CHECKS FOR EQUILIBRIUM ITERATION     2


 AVERAGE FORCE                       37.6       TIME AVG. FORCE        37.6    
 LARGEST RESIDUAL FORCE              135.       AT NODE          5   DOF  1
   INSTANCE: PART-1-1                                                                        
 LARGEST INCREMENT OF DISP.         0.381       AT NODE          4   DOF  2
   INSTANCE: PART-1-1                                                                        
 LARGEST CORRECTION TO DISP.        7.900E-03   AT NODE          4   DOF  2
   INSTANCE: PART-1-1                                                                        
          FORCE     EQUILIBRIUM NOT ACHIEVED WITHIN TOLERANCE.

 AVERAGE MOMENT                      799.       TIME AVG. MOMENT       278.    
 LARGEST RESIDUAL MOMENT           -8.394E-02   AT NODE          2   DOF  6
   INSTANCE: PART-1-1                                                                        
 LARGEST INCREMENT OF ROTATION      0.157       AT NODE          1   DOF  6
   INSTANCE: PART-1-1                                                                        
 LARGEST CORRECTION TO ROTATION    -2.722E-03   AT NODE          6   DOF  6
   INSTANCE: PART-1-1                                                                        
 ESTIMATE OF ROTATION CORRECTION   -3.219E-05
 MOMENT    EQUILIB. ACCEPTED BASED ON SMALL RESIDUAL AND ESTIMATED CORRECTION

  NUMBER OF EQUATIONS =       42     NUMBER OF FLOATING PT. OPERATIONS =  5.24E+03

     CHECK POINT   START OF SOLVER    

     CHECK POINT  END OF SOLVER       

       ELAPSED USER TIME (SEC)      =   0.0000    
       ELAPSED SYSTEM TIME (SEC)    =   0.0000    
       ELAPSED TOTAL CPU TIME (SEC) =   0.0000    
       ELAPSED WALLCLOCK TIME (SEC) =          0
 

 ***WARNING: THE SYSTEM MATRIX HAS 1 NEGATIVE EIGENVALUES.
             EXPLANATIONS ARE SUGGESTED AFTER THE FIRST OCCURRENCE OF THIS MESSAGE.

               CONVERGENCE CHECKS FOR EQUILIBRIUM ITERATION     3


 AVERAGE FORCE                       11.4       TIME AVG. FORCE        11.4    
 LARGEST RESIDUAL FORCE             -39.7       AT NODE          3   DOF  1
   INSTANCE: PART-1-1                                                                        
 LARGEST INCREMENT OF DISP.         0.376       AT NODE          4   DOF  2
   INSTANCE: PART-1-1                                                                        
 LARGEST CORRECTION TO DISP.       -4.291E-03   AT NODE          4   DOF  2
   INSTANCE: PART-1-1                                                                        
          FORCE     EQUILIBRIUM NOT ACHIEVED WITHIN TOLERANCE.

 AVERAGE MOMENT                      799.       TIME AVG. MOMENT       278.    
 LARGEST RESIDUAL MOMENT           -1.213E-03   AT NODE          5   DOF  6
   INSTANCE: PART-1-1                                                                        
 LARGEST INCREMENT OF ROTATION      0.157       AT NODE          1   DOF  6
   INSTANCE: PART-1-1                                                                        
 LARGEST CORRECTION TO ROTATION     1.520E-03   AT NODE          6   DOF  6
   INSTANCE: PART-1-1                                                                        
          THE MOMENT    EQUILIBRIUM EQUATIONS HAVE CONVERGED

  NUMBER OF EQUATIONS =       42     NUMBER OF FLOATING PT. OPERATIONS =  5.24E+03

     CHECK POINT   START OF SOLVER    

     CHECK POINT  END OF SOLVER       

       ELAPSED USER TIME (SEC)      =   0.0000    
       ELAPSED SYSTEM TIME (SEC)    =   0.0000    
       ELAPSED TOTAL CPU TIME (SEC) =   0.0000    
       ELAPSED WALLCLOCK TIME (SEC) =          0
 

 ***WARNING: THE SYSTEM MATRIX HAS 1 NEGATIVE EIGENVALUES.
             EXPLANATIONS ARE SUGGESTED AFTER THE FIRST OCCURRENCE OF THIS MESSAGE.

               CONVERGENCE CHECKS FOR EQUILIBRIUM ITERATION     4


 AVERAGE FORCE                      1.387E-02   TIME AVG. FORCE       1.387E-02
 LARGEST RESIDUAL FORCE             5.349E-02   AT NODE          5   DOF  1
   INSTANCE: PART-1-1                                                                        
 LARGEST INCREMENT OF DISP.         0.376       AT NODE          4   DOF  2
   INSTANCE: PART-1-1                                                                        
 LARGEST CORRECTION TO DISP.       -1.508E-04   AT NODE          4   DOF  2
   INSTANCE: PART-1-1                                                                        
          FORCE     EQUILIBRIUM NOT ACHIEVED WITHIN TOLERANCE.

 AVERAGE MOMENT                      799.       TIME AVG. MOMENT       278.    
 LARGEST RESIDUAL MOMENT           -5.466E-04   AT NODE          5   DOF  6
   INSTANCE: PART-1-1                                                                        
 LARGEST INCREMENT OF ROTATION      0.157       AT NODE          1   DOF  6
   INSTANCE: PART-1-1                                                                        
 LARGEST CORRECTION TO ROTATION     4.549E-05   AT NODE          6   DOF  6
   INSTANCE: PART-1-1                                                                        
          THE MOMENT    EQUILIBRIUM EQUATIONS HAVE CONVERGED

  NUMBER OF EQUATIONS =       42     NUMBER OF FLOATING PT. OPERATIONS =  5.24E+03

     CHECK POINT   START OF SOLVER    

     CHECK POINT  END OF SOLVER       

       ELAPSED USER TIME (SEC)      =   0.0000    
       ELAPSED SYSTEM TIME (SEC)    =   0.0000    
       ELAPSED TOTAL CPU TIME (SEC) =   0.0000    
       ELAPSED WALLCLOCK TIME (SEC) =          0
 

 ***WARNING: THE SYSTEM MATRIX HAS 1 NEGATIVE EIGENVALUES.
             EXPLANATIONS ARE SUGGESTED AFTER THE FIRST OCCURRENCE OF THIS MESSAGE.

               CONVERGENCE CHECKS FOR EQUILIBRIUM ITERATION     5


 AVERAGE FORCE                      1.408E-06   TIME AVG. FORCE        122.    
                                                (FROM MOMENT    FIELD)
 LARGEST RESIDUAL FORCE             5.729E-06   AT NODE          5   DOF  1
   INSTANCE: PART-1-1                                                                        
 LARGEST INCREMENT OF DISP.         0.376       AT NODE          4   DOF  2
   INSTANCE: PART-1-1                                                                        
 LARGEST CORRECTION TO DISP.       -1.513E-06   AT NODE          4   DOF  2
   INSTANCE: PART-1-1                                                                        
          THERE IS ZERO FORCE     EVERYWHERE

 AVERAGE MOMENT                      799.       TIME AVG. MOMENT       278.    
 LARGEST RESIDUAL MOMENT            7.475E-07   AT NODE          3   DOF  6
   INSTANCE: PART-1-1                                                                        
 LARGEST INCREMENT OF ROTATION      0.157       AT NODE          1   DOF  6
   INSTANCE: PART-1-1                                                                        
 LARGEST CORRECTION TO ROTATION    -4.833E-07   AT NODE          2   DOF  6
   INSTANCE: PART-1-1                                                                        
          THE MOMENT    EQUILIBRIUM EQUATIONS HAVE CONVERGED

 ITERATION SUMMARY FOR THE INCREMENT:   5 TOTAL ITERATIONS, OF WHICH
   0 ARE SEVERE DISCONTINUITY ITERATIONS AND  5 ARE EQUILIBRIUM ITERATIONS.

 TIME INCREMENT COMPLETED  0.100    ,  FRACTION OF STEP COMPLETED  0.318    
 STEP TIME COMPLETED       0.318    ,  TOTAL TIME COMPLETED        0.318    


  INCREMENT     9 STARTS. ATTEMPT NUMBER  1, TIME INCREMENT  0.100    

  NUMBER OF EQUATIONS =       42     NUMBER OF FLOATING PT. OPERATIONS =  5.24E+03

     CHECK POINT   START OF SOLVER    

     CHECK POINT  END OF SOLVER       

       ELAPSED USER TIME (SEC)      =   0.0000    
       ELAPSED SYSTEM TIME (SEC)    =   0.0000    
       ELAPSED TOTAL CPU TIME (SEC) =   0.0000    
       ELAPSED WALLCLOCK TIME (SEC) =          0
 

 ***WARNING: THE SYSTEM MATRIX HAS 1 NEGATIVE EIGENVALUES.
             EXPLANATIONS ARE SUGGESTED AFTER THE FIRST OCCURRENCE OF THIS MESSAGE.

               CONVERGENCE CHECKS FOR EQUILIBRIUM ITERATION     1


 AVERAGE FORCE                      1.457E+03   TIME AVG. FORCE       1.457E+03
 LARGEST RESIDUAL FORCE             7.293E+03   AT NODE          7   DOF  1
   INSTANCE: PART-1-1                                                                        
 LARGEST INCREMENT OF DISP.         0.357       AT NODE          4   DOF  2
   INSTANCE: PART-1-1                                                                        
 LARGEST CORRECTION TO DISP.       -3.569E-02   AT NODE          7   DOF  1
   INSTANCE: PART-1-1                                                                        
          FORCE     EQUILIBRIUM NOT ACHIEVED WITHIN TOLERANCE.

 AVERAGE MOMENT                     1.050E+03   TIME AVG. MOMENT       364.    
 LARGEST RESIDUAL MOMENT            -10.5       AT NODE          6   DOF  6
   INSTANCE: PART-1-1                                                                        
 LARGEST INCREMENT OF ROTATION      0.157       AT NODE          1   DOF  6
   INSTANCE: PART-1-1                                                                        
 LARGEST CORRECTION TO ROTATION    -1.737E-03   AT NODE          2   DOF  6
   INSTANCE: PART-1-1                                                                        
          MOMENT    EQUILIBRIUM NOT ACHIEVED WITHIN TOLERANCE.

  NUMBER OF EQUATIONS =       42     NUMBER OF FLOATING PT. OPERATIONS =  5.24E+03

     CHECK POINT   START OF SOLVER    

     CHECK POINT  END OF SOLVER       

       ELAPSED USER TIME (SEC)      =   0.0000    
       ELAPSED SYSTEM TIME (SEC)    =   0.0000    
       ELAPSED TOTAL CPU TIME (SEC) =   0.0000    
       ELAPSED WALLCLOCK TIME (SEC) =          0
 

 ***WARNING: THE SYSTEM MATRIX HAS 1 NEGATIVE EIGENVALUES.
             EXPLANATIONS ARE SUGGESTED AFTER THE FIRST OCCURRENCE OF THIS MESSAGE.

               CONVERGENCE CHECKS FOR EQUILIBRIUM ITERATION     2


 AVERAGE FORCE                       281.       TIME AVG. FORCE        281.    
 LARGEST RESIDUAL FORCE             -933.       AT NODE          3   DOF  1
   INSTANCE: PART-1-1                                                                        
 LARGEST INCREMENT OF DISP.         0.377       AT NODE          4   DOF  2
   INSTANCE: PART-1-1                                                                        
 LARGEST CORRECTION TO DISP.        2.040E-02   AT NODE          4   DOF  2
   INSTANCE: PART-1-1                                                                        
          FORCE     EQUILIBRIUM NOT ACHIEVED WITHIN TOLERANCE.

 AVERAGE MOMENT                     1.050E+03   TIME AVG. MOMENT       364.    
 LARGEST RESIDUAL MOMENT           -0.154       AT NODE          2   DOF  6
   INSTANCE: PART-1-1                                                                        
 LARGEST INCREMENT OF ROTATION      0.157       AT NODE          1   DOF  6
   INSTANCE: PART-1-1                                                                        
 LARGEST CORRECTION TO ROTATION    -7.357E-03   AT NODE          6   DOF  6
   INSTANCE: PART-1-1                                                                        
 ESTIMATE OF ROTATION CORRECTION   -1.085E-04
 MOMENT    EQUILIB. ACCEPTED BASED ON SMALL RESIDUAL AND ESTIMATED CORRECTION

  NUMBER OF EQUATIONS =       42     NUMBER OF FLOATING PT. OPERATIONS =  5.24E+03

     CHECK POINT   START OF SOLVER    

     CHECK POINT  END OF SOLVER       

       ELAPSED USER TIME (SEC)      =   0.0000    
       ELAPSED SYSTEM TIME (SEC)    =   0.0000    
       ELAPSED TOTAL CPU TIME (SEC) =   0.0000    
       ELAPSED WALLCLOCK TIME (SEC) =          0

               CONVERGENCE CHECKS FOR EQUILIBRIUM ITERATION     3


 AVERAGE FORCE                       106.       TIME AVG. FORCE        106.    
 LARGEST RESIDUAL FORCE             -328.       AT NODE          3   DOF  1
   INSTANCE: PART-1-1                                                                        
 LARGEST INCREMENT OF DISP.         0.365       AT NODE          4   DOF  2
   INSTANCE: PART-1-1                                                                        
 LARGEST CORRECTION TO DISP.       -1.225E-02   AT NODE          4   DOF  2
   INSTANCE: PART-1-1                                                                        
          FORCE     EQUILIBRIUM NOT ACHIEVED WITHIN TOLERANCE.

 AVERAGE MOMENT                     1.050E+03   TIME AVG. MOMENT       364.    
 LARGEST RESIDUAL MOMENT            1.072E-02   AT NODE          6   DOF  6
   INSTANCE: PART-1-1                                                                        
 LARGEST INCREMENT OF ROTATION      0.157       AT NODE          1   DOF  6
   INSTANCE: PART-1-1                                                                        
 LARGEST CORRECTION TO ROTATION     4.649E-03   AT NODE          6   DOF  6
   INSTANCE: PART-1-1                                                                        
 ESTIMATE OF ROTATION CORRECTION   -3.228E-04
 MOMENT    EQUILIB. ACCEPTED BASED ON SMALL RESIDUAL AND ESTIMATED CORRECTION

  NUMBER OF EQUATIONS =       42     NUMBER OF FLOATING PT. OPERATIONS =  5.24E+03

     CHECK POINT   START OF SOLVER    

     CHECK POINT  END OF SOLVER       

       ELAPSED USER TIME (SEC)      =   0.0000    
       ELAPSED SYSTEM TIME (SEC)    =   0.0000    
       ELAPSED TOTAL CPU TIME (SEC) =   0.0000    
       ELAPSED WALLCLOCK TIME (SEC) =          0

               CONVERGENCE CHECKS FOR EQUILIBRIUM ITERATION     4


 AVERAGE FORCE                       5.34       TIME AVG. FORCE        5.34    
 LARGEST RESIDUAL FORCE              19.5       AT NODE          5   DOF  1
   INSTANCE: PART-1-1                                                                        
 LARGEST INCREMENT OF DISP.         0.362       AT NODE          4   DOF  2
   INSTANCE: PART-1-1                                                                        
 LARGEST CORRECTION TO DISP.       -2.828E-03   AT NODE          4   DOF  2
   INSTANCE: PART-1-1                                                                        
          FORCE     EQUILIBRIUM NOT ACHIEVED WITHIN TOLERANCE.

 AVERAGE MOMENT                     1.050E+03   TIME AVG. MOMENT       364.    
 LARGEST RESIDUAL MOMENT            5.555E-03   AT NODE          3   DOF  6
   INSTANCE: PART-1-1                                                                        
 LARGEST INCREMENT OF ROTATION      0.157       AT NODE          1   DOF  6
   INSTANCE: PART-1-1                                                                        
 LARGEST CORRECTION TO ROTATION     8.898E-04   AT NODE          6   DOF  6
   INSTANCE: PART-1-1                                                                        
          THE MOMENT    EQUILIBRIUM EQUATIONS HAVE CONVERGED

  NUMBER OF EQUATIONS =       42     NUMBER OF FLOATING PT. OPERATIONS =  5.24E+03

     CHECK POINT   START OF SOLVER    

     CHECK POINT  END OF SOLVER       

       ELAPSED USER TIME (SEC)      =   0.0000    
       ELAPSED SYSTEM TIME (SEC)    =   0.0000    
       ELAPSED TOTAL CPU TIME (SEC) =   0.0000    
       ELAPSED WALLCLOCK TIME (SEC) =          0
 

 ***WARNING: THE SYSTEM MATRIX HAS 1 NEGATIVE EIGENVALUES.
             EXPLANATIONS ARE SUGGESTED AFTER THE FIRST OCCURRENCE OF THIS MESSAGE.

               CONVERGENCE CHECKS FOR EQUILIBRIUM ITERATION     5


 AVERAGE FORCE                      4.433E-02   TIME AVG. FORCE       4.433E-02
 LARGEST RESIDUAL FORCE             0.163       AT NODE          5   DOF  1
   INSTANCE: PART-1-1                                                                        
 LARGEST INCREMENT OF DISP.         0.362       AT NODE          4   DOF  2
   INSTANCE: PART-1-1                                                                        
 LARGEST CORRECTION TO DISP.       -2.574E-04   AT NODE          4   DOF  2
   INSTANCE: PART-1-1                                                                        
          FORCE     EQUILIBRIUM NOT ACHIEVED WITHIN TOLERANCE.

 AVERAGE MOMENT                     1.050E+03   TIME AVG. MOMENT       364.    
 LARGEST RESIDUAL MOMENT            3.623E-04   AT NODE          3   DOF  6
   INSTANCE: PART-1-1                                                                        
 LARGEST INCREMENT OF ROTATION      0.157       AT NODE          1   DOF  6
   INSTANCE: PART-1-1                                                                        
 LARGEST CORRECTION TO ROTATION    -8.077E-05   AT NODE          2   DOF  6
   INSTANCE: PART-1-1                                                                        
          THE MOMENT    EQUILIBRIUM EQUATIONS HAVE CONVERGED

  NUMBER OF EQUATIONS =       42     NUMBER OF FLOATING PT. OPERATIONS =  5.24E+03

     CHECK POINT   START OF SOLVER    

     CHECK POINT  END OF SOLVER       

       ELAPSED USER TIME (SEC)      =   0.0000    
       ELAPSED SYSTEM TIME (SEC)    =   0.0000    
       ELAPSED TOTAL CPU TIME (SEC) =   0.0000    
       ELAPSED WALLCLOCK TIME (SEC) =          0
 

 ***WARNING: THE SYSTEM MATRIX HAS 1 NEGATIVE EIGENVALUES.
             EXPLANATIONS ARE SUGGESTED AFTER THE FIRST OCCURRENCE OF THIS MESSAGE.

               CONVERGENCE CHECKS FOR EQUILIBRIUM ITERATION     6


 AVERAGE FORCE                      1.318E-06   TIME AVG. FORCE        167.    
                                                (FROM MOMENT    FIELD)
 LARGEST RESIDUAL FORCE             4.956E-06   AT NODE          5   DOF  1
   INSTANCE: PART-1-1                                                                        
 LARGEST INCREMENT OF DISP.         0.362       AT NODE          4   DOF  2
   INSTANCE: PART-1-1                                                                        
 LARGEST CORRECTION TO DISP.       -1.397E-06   AT NODE          4   DOF  2
   INSTANCE: PART-1-1                                                                        
          THERE IS ZERO FORCE     EVERYWHERE

 AVERAGE MOMENT                     1.050E+03   TIME AVG. MOMENT       364.    
 LARGEST RESIDUAL MOMENT           -3.062E-06   AT NODE          5   DOF  6
   INSTANCE: PART-1-1                                                                        
 LARGEST INCREMENT OF ROTATION      0.157       AT NODE          1   DOF  6
   INSTANCE: PART-1-1                                                                        
 LARGEST CORRECTION TO ROTATION     4.471E-07   AT NODE          6   DOF  6
   INSTANCE: PART-1-1                                                                        
          THE MOMENT    EQUILIBRIUM EQUATIONS HAVE CONVERGED

 ITERATION SUMMARY FOR THE INCREMENT:   6 TOTAL ITERATIONS, OF WHICH
   0 ARE SEVERE DISCONTINUITY ITERATIONS AND  6 ARE EQUILIBRIUM ITERATIONS.

 TIME INCREMENT COMPLETED  0.100    ,  FRACTION OF STEP COMPLETED  0.418    
 STEP TIME COMPLETED       0.418    ,  TOTAL TIME COMPLETED        0.418    


  INCREMENT    10 STARTS. ATTEMPT NUMBER  1, TIME INCREMENT  0.100    

  NUMBER OF EQUATIONS =       42     NUMBER OF FLOATING PT. OPERATIONS =  5.24E+03

     CHECK POINT   START OF SOLVER    

     CHECK POINT  END OF SOLVER       

       ELAPSED USER TIME (SEC)      =   0.0000    
       ELAPSED SYSTEM TIME (SEC)    =   0.0000    
       ELAPSED TOTAL CPU TIME (SEC) =   0.0000    
       ELAPSED WALLCLOCK TIME (SEC) =          0
 

 ***WARNING: THE SYSTEM MATRIX HAS 1 NEGATIVE EIGENVALUES.
             EXPLANATIONS ARE SUGGESTED AFTER THE FIRST OCCURRENCE OF THIS MESSAGE.

               CONVERGENCE CHECKS FOR EQUILIBRIUM ITERATION     1


 AVERAGE FORCE                      1.492E+03   TIME AVG. FORCE       1.492E+03
 LARGEST RESIDUAL FORCE            -6.667E+03   AT NODE          1   DOF  1
   INSTANCE: PART-1-1                                                                        
 LARGEST INCREMENT OF DISP.         0.338       AT NODE          4   DOF  2
   INSTANCE: PART-1-1                                                                        
 LARGEST CORRECTION TO DISP.       -3.276E-02   AT NODE          7   DOF  1
   INSTANCE: PART-1-1                                                                        
          FORCE     EQUILIBRIUM NOT ACHIEVED WITHIN TOLERANCE.

 AVERAGE MOMENT                     1.301E+03   TIME AVG. MOMENT       457.    
 LARGEST RESIDUAL MOMENT            -12.9       AT NODE          6   DOF  6
   INSTANCE: PART-1-1                                                                        
 LARGEST INCREMENT OF ROTATION      0.157       AT NODE          1   DOF  6
   INSTANCE: PART-1-1                                                                        
 LARGEST CORRECTION TO ROTATION    -2.206E-03   AT NODE          2   DOF  6
   INSTANCE: PART-1-1                                                                        
          MOMENT    EQUILIBRIUM NOT ACHIEVED WITHIN TOLERANCE.

  NUMBER OF EQUATIONS =       42     NUMBER OF FLOATING PT. OPERATIONS =  5.24E+03

     CHECK POINT   START OF SOLVER    

     CHECK POINT  END OF SOLVER       

       ELAPSED USER TIME (SEC)      =   0.0000    
       ELAPSED SYSTEM TIME (SEC)    =   0.0000    
       ELAPSED TOTAL CPU TIME (SEC) =   0.0000    
       ELAPSED WALLCLOCK TIME (SEC) =          0
 

 ***WARNING: THE SYSTEM MATRIX HAS 1 NEGATIVE EIGENVALUES.
             EXPLANATIONS ARE SUGGESTED AFTER THE FIRST OCCURRENCE OF THIS MESSAGE.

               CONVERGENCE CHECKS FOR EQUILIBRIUM ITERATION     2


 AVERAGE FORCE                       453.       TIME AVG. FORCE        453.    
 LARGEST RESIDUAL FORCE            -1.410E+03   AT NODE          3   DOF  1
   INSTANCE: PART-1-1                                                                        
 LARGEST INCREMENT OF DISP.         0.362       AT NODE          4   DOF  2
   INSTANCE: PART-1-1                                                                        
 LARGEST CORRECTION TO DISP.        2.447E-02   AT NODE          4   DOF  2
   INSTANCE: PART-1-1                                                                        
          FORCE     EQUILIBRIUM NOT ACHIEVED WITHIN TOLERANCE.

 AVERAGE MOMENT                     1.301E+03   TIME AVG. MOMENT       457.    
 LARGEST RESIDUAL MOMENT            0.189       AT NODE          6   DOF  6
   INSTANCE: PART-1-1                                                                        
 LARGEST INCREMENT OF ROTATION      0.157       AT NODE          1   DOF  6
   INSTANCE: PART-1-1                                                                        
 LARGEST CORRECTION TO ROTATION     9.232E-03   AT NODE          2   DOF  6
   INSTANCE: PART-1-1                                                                        
 ESTIMATE OF ROTATION CORRECTION   -1.350E-04
 MOMENT    EQUILIB. ACCEPTED BASED ON SMALL RESIDUAL AND ESTIMATED CORRECTION

  NUMBER OF EQUATIONS =       42     NUMBER OF FLOATING PT. OPERATIONS =  5.24E+03

     CHECK POINT   START OF SOLVER    

     CHECK POINT  END OF SOLVER       

       ELAPSED USER TIME (SEC)      =   0.0000    
       ELAPSED SYSTEM TIME (SEC)    =   0.0000    
       ELAPSED TOTAL CPU TIME (SEC) =   0.0000    
       ELAPSED WALLCLOCK TIME (SEC) =          0

               CONVERGENCE CHECKS FOR EQUILIBRIUM ITERATION     3


 AVERAGE FORCE                       140.       TIME AVG. FORCE        140.    
 LARGEST RESIDUAL FORCE              391.       AT NODE          5   DOF  1
   INSTANCE: PART-1-1                                                                        
 LARGEST INCREMENT OF DISP.         0.349       AT NODE          4   DOF  2
   INSTANCE: PART-1-1                                                                        
 LARGEST CORRECTION TO DISP.       -1.309E-02   AT NODE          4   DOF  2
   INSTANCE: PART-1-1                                                                        
          FORCE     EQUILIBRIUM NOT ACHIEVED WITHIN TOLERANCE.

 AVERAGE MOMENT                     1.301E+03   TIME AVG. MOMENT       457.    
 LARGEST RESIDUAL MOMENT           -2.201E-02   AT NODE          2   DOF  6
   INSTANCE: PART-1-1                                                                        
 LARGEST INCREMENT OF ROTATION      0.157       AT NODE          1   DOF  6
   INSTANCE: PART-1-1                                                                        
 LARGEST CORRECTION TO ROTATION    -5.320E-03   AT NODE          2   DOF  6
   INSTANCE: PART-1-1                                                                        
 ESTIMATE OF ROTATION CORRECTION    6.190E-04
 MOMENT    EQUILIB. ACCEPTED BASED ON SMALL RESIDUAL AND ESTIMATED CORRECTION

  NUMBER OF EQUATIONS =       42     NUMBER OF FLOATING PT. OPERATIONS =  5.24E+03

     CHECK POINT   START OF SOLVER    

     CHECK POINT  END OF SOLVER       

       ELAPSED USER TIME (SEC)      =   0.0000    
       ELAPSED SYSTEM TIME (SEC)    =   0.0000    
       ELAPSED TOTAL CPU TIME (SEC) =   0.0000    
       ELAPSED WALLCLOCK TIME (SEC) =          0

               CONVERGENCE CHECKS FOR EQUILIBRIUM ITERATION     4


 AVERAGE FORCE                       16.2       TIME AVG. FORCE        16.2    
 LARGEST RESIDUAL FORCE              55.3       AT NODE          5   DOF  1
   INSTANCE: PART-1-1                                                                        
 LARGEST INCREMENT OF DISP.         0.344       AT NODE          4   DOF  2
   INSTANCE: PART-1-1                                                                        
 LARGEST CORRECTION TO DISP.       -4.668E-03   AT NODE          4   DOF  2
   INSTANCE: PART-1-1                                                                        
          FORCE     EQUILIBRIUM NOT ACHIEVED WITHIN TOLERANCE.

 AVERAGE MOMENT                     1.301E+03   TIME AVG. MOMENT       457.    
 LARGEST RESIDUAL MOMENT            7.645E-03   AT NODE          3   DOF  6
   INSTANCE: PART-1-1                                                                        
 LARGEST INCREMENT OF ROTATION      0.157       AT NODE          1   DOF  6
   INSTANCE: PART-1-1                                                                        
 LARGEST CORRECTION TO ROTATION     1.532E-03   AT NODE          6   DOF  6
   INSTANCE: PART-1-1                                                                        
          THE MOMENT    EQUILIBRIUM EQUATIONS HAVE CONVERGED

  NUMBER OF EQUATIONS =       42     NUMBER OF FLOATING PT. OPERATIONS =  5.24E+03

     CHECK POINT   START OF SOLVER    

     CHECK POINT  END OF SOLVER       

       ELAPSED USER TIME (SEC)      =   0.0000    
       ELAPSED SYSTEM TIME (SEC)    =   0.0000    
       ELAPSED TOTAL CPU TIME (SEC) =   0.0000    
       ELAPSED WALLCLOCK TIME (SEC) =          0
 

 ***WARNING: THE SYSTEM MATRIX HAS 1 NEGATIVE EIGENVALUES.
             EXPLANATIONS ARE SUGGESTED AFTER THE FIRST OCCURRENCE OF THIS MESSAGE.

               CONVERGENCE CHECKS FOR EQUILIBRIUM ITERATION     5


 AVERAGE FORCE                      0.204       TIME AVG. FORCE       0.204    
 LARGEST RESIDUAL FORCE            -0.698       AT NODE          3   DOF  1
   INSTANCE: PART-1-1                                                                        
 LARGEST INCREMENT OF DISP.         0.344       AT NODE          4   DOF  2
   INSTANCE: PART-1-1                                                                        
 LARGEST CORRECTION TO DISP.       -5.244E-04   AT NODE          4   DOF  2
   INSTANCE: PART-1-1                                                                        
          FORCE     EQUILIBRIUM NOT ACHIEVED WITHIN TOLERANCE.

 AVERAGE MOMENT                     1.301E+03   TIME AVG. MOMENT       457.    
 LARGEST RESIDUAL MOMENT           -1.312E-03   AT NODE          5   DOF  6
   INSTANCE: PART-1-1                                                                        
 LARGEST INCREMENT OF ROTATION      0.157       AT NODE          1   DOF  6
   INSTANCE: PART-1-1                                                                        
 LARGEST CORRECTION TO ROTATION    -1.715E-04   AT NODE          2   DOF  6
   INSTANCE: PART-1-1                                                                        
          THE MOMENT    EQUILIBRIUM EQUATIONS HAVE CONVERGED

  NUMBER OF EQUATIONS =       42     NUMBER OF FLOATING PT. OPERATIONS =  5.24E+03

     CHECK POINT   START OF SOLVER    

     CHECK POINT  END OF SOLVER       

       ELAPSED USER TIME (SEC)      =   0.0000    
       ELAPSED SYSTEM TIME (SEC)    =   0.0000    
       ELAPSED TOTAL CPU TIME (SEC) =   0.0000    
       ELAPSED WALLCLOCK TIME (SEC) =          0
 

 ***WARNING: THE SYSTEM MATRIX HAS 1 NEGATIVE EIGENVALUES.
             EXPLANATIONS ARE SUGGESTED AFTER THE FIRST OCCURRENCE OF THIS MESSAGE.

               CONVERGENCE CHECKS FOR EQUILIBRIUM ITERATION     6


 AVERAGE FORCE                      5.241E-05   TIME AVG. FORCE        218.    
                                                (FROM MOMENT    FIELD)
 LARGEST RESIDUAL FORCE            -1.853E-04   AT NODE          6   DOF  1
   INSTANCE: PART-1-1                                                                        
 LARGEST INCREMENT OF DISP.         0.344       AT NODE          4   DOF  2
   INSTANCE: PART-1-1                                                                        
 LARGEST CORRECTION TO DISP.       -8.385E-06   AT NODE          4   DOF  2
   INSTANCE: PART-1-1                                                                        
          THERE IS ZERO FORCE     EVERYWHERE

[...]
   INSTANCE: PART-1-1                                                                        
 LARGEST CORRECTION TO DISP.       -6.532E-03   AT NODE          4   DOF  2
   INSTANCE: PART-1-1                                                                        
          FORCE     EQUILIBRIUM NOT ACHIEVED WITHIN TOLERANCE.

 AVERAGE MOMENT                     2.191E+03   TIME AVG. MOMENT      2.229E+03
 LARGEST RESIDUAL MOMENT             6.49       AT NODE          3   DOF  4
   INSTANCE: PART-1-1                                                                        
 LARGEST INCREMENT OF ROTATION      5.236E-02   AT NODE          1   DOF  6
   INSTANCE: PART-1-1                                                                        
 LARGEST CORRECTION TO ROTATION    -2.285E-03   AT NODE          4   DOF  4
   INSTANCE: PART-1-1                                                                        
 ESTIMATE OF ROTATION CORRECTION    2.069E-04
 MOMENT    EQUILIB. ACCEPTED BASED ON SMALL RESIDUAL AND ESTIMATED CORRECTION

  NUMBER OF EQUATIONS =       42     NUMBER OF FLOATING PT. OPERATIONS =  5.24E+03

     CHECK POINT   START OF SOLVER    

     CHECK POINT  END OF SOLVER       

       ELAPSED USER TIME (SEC)      =   0.0000    
       ELAPSED SYSTEM TIME (SEC)    =   0.0000    
       ELAPSED TOTAL CPU TIME (SEC) =   0.0000    
       ELAPSED WALLCLOCK TIME (SEC) =          0

               CONVERGENCE CHECKS FOR EQUILIBRIUM ITERATION     2


 AVERAGE FORCE                       513.       TIME AVG. FORCE        714.    
 LARGEST RESIDUAL FORCE              1.74       AT NODE          4   DOF  3
   INSTANCE: PART-1-1                                                                        
 LARGEST INCREMENT OF DISP.        -0.112       AT NODE          4   DOF  3
   INSTANCE: PART-1-1                                                                        
 LARGEST CORRECTION TO DISP.        5.602E-04   AT NODE          4   DOF  3
   INSTANCE: PART-1-1                                                                        
          THE FORCE     EQUILIBRIUM EQUATIONS HAVE CONVERGED

 AVERAGE MOMENT                     2.191E+03   TIME AVG. MOMENT      2.229E+03
 LARGEST RESIDUAL MOMENT           -0.625       AT NODE          3   DOF  4
   INSTANCE: PART-1-1                                                                        
 LARGEST INCREMENT OF ROTATION      5.236E-02   AT NODE          1   DOF  6
   INSTANCE: PART-1-1                                                                        
 LARGEST CORRECTION TO ROTATION     4.494E-04   AT NODE          3   DOF  4
   INSTANCE: PART-1-1                                                                        
          THE MOMENT    EQUILIBRIUM EQUATIONS HAVE CONVERGED

 ITERATION SUMMARY FOR THE INCREMENT:   2 TOTAL ITERATIONS, OF WHICH
   0 ARE SEVERE DISCONTINUITY ITERATIONS AND  2 ARE EQUILIBRIUM ITERATIONS.

 TIME INCREMENT COMPLETED  0.100    ,  FRACTION OF STEP COMPLETED  0.600    
 STEP TIME COMPLETED       0.600    ,  TOTAL TIME COMPLETED         3.60    


  INCREMENT     7 STARTS. ATTEMPT NUMBER  1, TIME INCREMENT  0.100    

  NUMBER OF EQUATIONS =       42     NUMBER OF FLOATING PT. OPERATIONS =  5.24E+03

     CHECK POINT   START OF SOLVER    

     CHECK POINT  END OF SOLVER       

       ELAPSED USER TIME (SEC)      =   0.0000    
       ELAPSED SYSTEM TIME (SEC)    =   0.0000    
       ELAPSED TOTAL CPU TIME (SEC) =   0.0000    
       ELAPSED WALLCLOCK TIME (SEC) =          0

               CONVERGENCE CHECKS FOR EQUILIBRIUM ITERATION     1


 AVERAGE FORCE                       455.       TIME AVG. FORCE        677.    
 LARGEST RESIDUAL FORCE             -37.0       AT NODE          2   DOF  2
   INSTANCE: PART-1-1                                                                        
 LARGEST INCREMENT OF DISP.        -0.114       AT NODE          4   DOF  3
   INSTANCE: PART-1-1                                                                        
 LARGEST CORRECTION TO DISP.       -6.912E-03   AT NODE          4   DOF  2
   INSTANCE: PART-1-1                                                                        
          FORCE     EQUILIBRIUM NOT ACHIEVED WITHIN TOLERANCE.

 AVERAGE MOMENT                     2.173E+03   TIME AVG. MOMENT      2.221E+03
 LARGEST RESIDUAL MOMENT             5.73       AT NODE          5   DOF  4
   INSTANCE: PART-1-1                                                                        
 LARGEST INCREMENT OF ROTATION      5.236E-02   AT NODE          1   DOF  6
   INSTANCE: PART-1-1                                                                        
 LARGEST CORRECTION TO ROTATION    -2.389E-03   AT NODE          4   DOF  4
   INSTANCE: PART-1-1                                                                        
 ESTIMATE OF ROTATION CORRECTION   -1.724E-04
 MOMENT    EQUILIB. ACCEPTED BASED ON SMALL RESIDUAL AND ESTIMATED CORRECTION

  NUMBER OF EQUATIONS =       42     NUMBER OF FLOATING PT. OPERATIONS =  5.24E+03

     CHECK POINT   START OF SOLVER    

     CHECK POINT  END OF SOLVER       

       ELAPSED USER TIME (SEC)      =   0.0000    
       ELAPSED SYSTEM TIME (SEC)    =   0.0000    
       ELAPSED TOTAL CPU TIME (SEC) =   0.0000    
       ELAPSED WALLCLOCK TIME (SEC) =          0

               CONVERGENCE CHECKS FOR EQUILIBRIUM ITERATION     2


 AVERAGE FORCE                       448.       TIME AVG. FORCE        676.    
 LARGEST RESIDUAL FORCE              1.46       AT NODE          4   DOF  3
   INSTANCE: PART-1-1                                                                        
 LARGEST INCREMENT OF DISP.        -0.113       AT NODE          4   DOF  3
   INSTANCE: PART-1-1                                                                        
 LARGEST CORRECTION TO DISP.        4.360E-04   AT NODE          4   DOF  2
   INSTANCE: PART-1-1                                                                        
          THE FORCE     EQUILIBRIUM EQUATIONS HAVE CONVERGED

 AVERAGE MOMENT                     2.173E+03   TIME AVG. MOMENT      2.221E+03
 LARGEST RESIDUAL MOMENT           -0.492       AT NODE          5   DOF  4
   INSTANCE: PART-1-1                                                                        
 LARGEST INCREMENT OF ROTATION      5.236E-02   AT NODE          1   DOF  6
   INSTANCE: PART-1-1                                                                        
 LARGEST CORRECTION TO ROTATION     4.148E-04   AT NODE          5   DOF  4
   INSTANCE: PART-1-1                                                                        
          THE MOMENT    EQUILIBRIUM EQUATIONS HAVE CONVERGED

 ITERATION SUMMARY FOR THE INCREMENT:   2 TOTAL ITERATIONS, OF WHICH
   0 ARE SEVERE DISCONTINUITY ITERATIONS AND  2 ARE EQUILIBRIUM ITERATIONS.

 TIME INCREMENT COMPLETED  0.100    ,  FRACTION OF STEP COMPLETED  0.700    
 STEP TIME COMPLETED       0.700    ,  TOTAL TIME COMPLETED         3.70    


  INCREMENT     8 STARTS. ATTEMPT NUMBER  1, TIME INCREMENT  0.100    

  NUMBER OF EQUATIONS =       42     NUMBER OF FLOATING PT. OPERATIONS =  5.24E+03

     CHECK POINT   START OF SOLVER    

     CHECK POINT  END OF SOLVER       

       ELAPSED USER TIME (SEC)      =   0.0000    
       ELAPSED SYSTEM TIME (SEC)    =   0.0000    
       ELAPSED TOTAL CPU TIME (SEC) =   0.0000    
       ELAPSED WALLCLOCK TIME (SEC) =          0

               CONVERGENCE CHECKS FOR EQUILIBRIUM ITERATION     1


 AVERAGE FORCE                       392.       TIME AVG. FORCE        640.    
 LARGEST RESIDUAL FORCE             -48.6       AT NODE          6   DOF  2
   INSTANCE: PART-1-1                                                                        
 LARGEST INCREMENT OF DISP.        -0.115       AT NODE          4   DOF  3
   INSTANCE: PART-1-1                                                                        
 LARGEST CORRECTION TO DISP.       -7.263E-03   AT NODE          4   DOF  2
   INSTANCE: PART-1-1                                                                        
          FORCE     EQUILIBRIUM NOT ACHIEVED WITHIN TOLERANCE.

 AVERAGE MOMENT                     2.190E+03   TIME AVG. MOMENT      2.217E+03
 LARGEST RESIDUAL MOMENT            -5.14       AT NODE          5   DOF  6
   INSTANCE: PART-1-1                                                                        
 LARGEST INCREMENT OF ROTATION      5.236E-02   AT NODE          1   DOF  6
   INSTANCE: PART-1-1                                                                        
 LARGEST CORRECTION TO ROTATION    -2.443E-03   AT NODE          4   DOF  4
   INSTANCE: PART-1-1                                                                        
 ESTIMATE OF ROTATION CORRECTION   -1.431E-04
 MOMENT    EQUILIB. ACCEPTED BASED ON SMALL RESIDUAL AND ESTIMATED CORRECTION

  NUMBER OF EQUATIONS =       42     NUMBER OF FLOATING PT. OPERATIONS =  5.24E+03

     CHECK POINT   START OF SOLVER    

     CHECK POINT  END OF SOLVER       

       ELAPSED USER TIME (SEC)      =   0.0000    
       ELAPSED SYSTEM TIME (SEC)    =   0.0000    
       ELAPSED TOTAL CPU TIME (SEC) =   0.0000    
       ELAPSED WALLCLOCK TIME (SEC) =          0

               CONVERGENCE CHECKS FOR EQUILIBRIUM ITERATION     2


 AVERAGE FORCE                       383.       TIME AVG. FORCE        639.    
 LARGEST RESIDUAL FORCE              1.24       AT NODE          4   DOF  3
   INSTANCE: PART-1-1                                                                        
 LARGEST INCREMENT OF DISP.        -0.115       AT NODE          4   DOF  3
   INSTANCE: PART-1-1                                                                        
 LARGEST CORRECTION TO DISP.        4.299E-04   AT NODE          4   DOF  2
   INSTANCE: PART-1-1                                                                        
          THE FORCE     EQUILIBRIUM EQUATIONS HAVE CONVERGED

 AVERAGE MOMENT                     2.190E+03   TIME AVG. MOMENT      2.217E+03
 LARGEST RESIDUAL MOMENT           -0.366       AT NODE          3   DOF  4
   INSTANCE: PART-1-1                                                                        
 LARGEST INCREMENT OF ROTATION      5.236E-02   AT NODE          1   DOF  6
   INSTANCE: PART-1-1                                                                        
 LARGEST CORRECTION TO ROTATION     3.777E-04   AT NODE          3   DOF  4
   INSTANCE: PART-1-1                                                                        
          THE MOMENT    EQUILIBRIUM EQUATIONS HAVE CONVERGED

 ITERATION SUMMARY FOR THE INCREMENT:   2 TOTAL ITERATIONS, OF WHICH
   0 ARE SEVERE DISCONTINUITY ITERATIONS AND  2 ARE EQUILIBRIUM ITERATIONS.

 TIME INCREMENT COMPLETED  0.100    ,  FRACTION OF STEP COMPLETED  0.800    
 STEP TIME COMPLETED       0.800    ,  TOTAL TIME COMPLETED         3.80    


  INCREMENT     9 STARTS. ATTEMPT NUMBER  1, TIME INCREMENT  0.100    

  NUMBER OF EQUATIONS =       42     NUMBER OF FLOATING PT. OPERATIONS =  5.24E+03

     CHECK POINT   START OF SOLVER    

     CHECK POINT  END OF SOLVER       

       ELAPSED USER TIME (SEC)      =   0.0000    
       ELAPSED SYSTEM TIME (SEC)    =   0.0000    
       ELAPSED TOTAL CPU TIME (SEC) =   0.0000    
       ELAPSED WALLCLOCK TIME (SEC) =          0

               CONVERGENCE CHECKS FOR EQUILIBRIUM ITERATION     1


 AVERAGE FORCE                       331.       TIME AVG. FORCE        605.    
 LARGEST RESIDUAL FORCE             -61.7       AT NODE          2   DOF  2
   INSTANCE: PART-1-1                                                                        
 LARGEST INCREMENT OF DISP.        -0.116       AT NODE          4   DOF  3
   INSTANCE: PART-1-1                                                                        
 LARGEST CORRECTION TO DISP.       -7.554E-03   AT NODE          4   DOF  2
   INSTANCE: PART-1-1                                                                        
          FORCE     EQUILIBRIUM NOT ACHIEVED WITHIN TOLERANCE.

 AVERAGE MOMENT                     2.219E+03   TIME AVG. MOMENT      2.217E+03
 LARGEST RESIDUAL MOMENT            -5.38       AT NODE          5   DOF  6
   INSTANCE: PART-1-1                                                                        
 LARGEST INCREMENT OF ROTATION      5.236E-02   AT NODE          1   DOF  6
   INSTANCE: PART-1-1                                                                        
 LARGEST CORRECTION TO ROTATION    -2.443E-03   AT NODE          4   DOF  4
   INSTANCE: PART-1-1                                                                        
 ESTIMATE OF ROTATION CORRECTION    1.360E-04
 MOMENT    EQUILIB. ACCEPTED BASED ON SMALL RESIDUAL AND ESTIMATED CORRECTION

  NUMBER OF EQUATIONS =       42     NUMBER OF FLOATING PT. OPERATIONS =  5.24E+03

     CHECK POINT   START OF SOLVER    

     CHECK POINT  END OF SOLVER       

       ELAPSED USER TIME (SEC)      =   0.0000    
       ELAPSED SYSTEM TIME (SEC)    =   0.0000    
       ELAPSED TOTAL CPU TIME (SEC) =   0.0000    
       ELAPSED WALLCLOCK TIME (SEC) =          0

               CONVERGENCE CHECKS FOR EQUILIBRIUM ITERATION     2


 AVERAGE FORCE                       319.       TIME AVG. FORCE        604.    
 LARGEST RESIDUAL FORCE              1.07       AT NODE          4   DOF  3
   INSTANCE: PART-1-1                                                                        
 LARGEST INCREMENT OF DISP.        -0.116       AT NODE          4   DOF  3
   INSTANCE: PART-1-1                                                                        
 LARGEST CORRECTION TO DISP.        4.146E-04   AT NODE          4   DOF  2
   INSTANCE: PART-1-1                                                                        
          THE FORCE     EQUILIBRIUM EQUATIONS HAVE CONVERGED

 AVERAGE MOMENT                     2.219E+03   TIME AVG. MOMENT      2.217E+03
 LARGEST RESIDUAL MOMENT           -0.249       AT NODE          3   DOF  4
   INSTANCE: PART-1-1                                                                        
 LARGEST INCREMENT OF ROTATION      5.236E-02   AT NODE          1   DOF  6
   INSTANCE: PART-1-1                                                                        
 LARGEST CORRECTION TO ROTATION     3.737E-04   AT NODE          3   DOF  5
   INSTANCE: PART-1-1                                                                        
          THE MOMENT    EQUILIBRIUM EQUATIONS HAVE CONVERGED

 ITERATION SUMMARY FOR THE INCREMENT:   2 TOTAL ITERATIONS, OF WHICH
   0 ARE SEVERE DISCONTINUITY ITERATIONS AND  2 ARE EQUILIBRIUM ITERATIONS.

 TIME INCREMENT COMPLETED  0.100    ,  FRACTION OF STEP COMPLETED  0.900    
 STEP TIME COMPLETED       0.900    ,  TOTAL TIME COMPLETED         3.90    


  INCREMENT    10 STARTS. ATTEMPT NUMBER  1, TIME INCREMENT  0.100    

  NUMBER OF EQUATIONS =       42     NUMBER OF FLOATING PT. OPERATIONS =  5.24E+03

     CHECK POINT   START OF SOLVER    

     CHECK POINT  END OF SOLVER       

       ELAPSED USER TIME (SEC)      =   0.0000    
       ELAPSED SYSTEM TIME (SEC)    =   0.0000    
       ELAPSED TOTAL CPU TIME (SEC) =   0.0000    
       ELAPSED WALLCLOCK TIME (SEC) =          0

               CONVERGENCE CHECKS FOR EQUILIBRIUM ITERATION     1


 AVERAGE FORCE                       272.       TIME AVG. FORCE        570.    
 LARGEST RESIDUAL FORCE             -75.1       AT NODE          2   DOF  2
   INSTANCE: PART-1-1                                                                        
 LARGEST INCREMENT OF DISP.        -0.117       AT NODE          4   DOF  3
   INSTANCE: PART-1-1                                                                        
 LARGEST CORRECTION TO DISP.       -7.755E-03   AT NODE          4   DOF  2
   INSTANCE: PART-1-1                                                                        
          FORCE     EQUILIBRIUM NOT ACHIEVED WITHIN TOLERANCE.

 AVERAGE MOMENT                     2.244E+03   TIME AVG. MOMENT      2.220E+03
 LARGEST RESIDUAL MOMENT             5.51       AT NODE          3   DOF  6
   INSTANCE: PART-1-1                                                                        
 LARGEST INCREMENT OF ROTATION      5.236E-02   AT NODE          1   DOF  6
   INSTANCE: PART-1-1                                                                        
 LARGEST CORRECTION TO ROTATION    -2.387E-03   AT NODE          4   DOF  4
   INSTANCE: PART-1-1                                                                        
 ESTIMATE OF ROTATION CORRECTION    1.243E-04
 MOMENT    EQUILIB. ACCEPTED BASED ON SMALL RESIDUAL AND ESTIMATED CORRECTION

  NUMBER OF EQUATIONS =       42     NUMBER OF FLOATING PT. OPERATIONS =  5.24E+03

     CHECK POINT   START OF SOLVER    

     CHECK POINT  END OF SOLVER       

       ELAPSED USER TIME (SEC)      =   0.0000    
       ELAPSED SYSTEM TIME (SEC)    =   0.0000    
       ELAPSED TOTAL CPU TIME (SEC) =   0.0000    
       ELAPSED WALLCLOCK TIME (SEC) =          0

               CONVERGENCE CHECKS FOR EQUILIBRIUM ITERATION     2


 AVERAGE FORCE                       257.       TIME AVG. FORCE        569.    
 LARGEST RESIDUAL FORCE             0.952       AT NODE          4   DOF  3
   INSTANCE: PART-1-1                                                                        
 LARGEST INCREMENT OF DISP.        -0.117       AT NODE          4   DOF  3
   INSTANCE: PART-1-1                                                                        
 LARGEST CORRECTION TO DISP.        3.889E-04   AT NODE          4   DOF  2
   INSTANCE: PART-1-1                                                                        
          THE FORCE     EQUILIBRIUM EQUATIONS HAVE CONVERGED

 AVERAGE MOMENT                     2.244E+03   TIME AVG. MOMENT      2.220E+03
 LARGEST RESIDUAL MOMENT           -0.147       AT NODE          4   DOF  4
   INSTANCE: PART-1-1                                                                        
 LARGEST INCREMENT OF ROTATION      5.236E-02   AT NODE          1   DOF  6
   INSTANCE: PART-1-1                                                                        
 LARGEST CORRECTION TO ROTATION    -3.966E-04   AT NODE          5   DOF  5
   INSTANCE: PART-1-1                                                                        
          THE MOMENT    EQUILIBRIUM EQUATIONS HAVE CONVERGED

 ITERATION SUMMARY FOR THE INCREMENT:   2 TOTAL ITERATIONS, OF WHICH
   0 ARE SEVERE DISCONTINUITY ITERATIONS AND  2 ARE EQUILIBRIUM ITERATIONS.

 TIME INCREMENT COMPLETED  0.100    ,  FRACTION OF STEP COMPLETED   1.00    
 STEP TIME COMPLETED        1.00    ,  TOTAL TIME COMPLETED         4.00    


          THE ANALYSIS HAS BEEN COMPLETED



     ANALYSIS SUMMARY:
     TOTAL OF         55  INCREMENTS
                       0  CUTBACKS IN AUTOMATIC INCREMENTATION
                     182  ITERATIONS INCLUDING CONTACT ITERATIONS IF PRESENT
                     182  PASSES THROUGH THE EQUATION SOLVER OF WHICH 
                     182  INVOLVE MATRIX DECOMPOSITION, INCLUDING
                       0  DECOMPOSITION(S) OF THE MASS MATRIX
                       1  REORDERING OF EQUATIONS TO MINIMIZE WAVEFRONT
                       0  ADDITIONAL RESIDUAL EVALUATIONS FOR LINE SEARCHES
                       0  ADDITIONAL OPERATOR EVALUATIONS FOR LINE SEARCHES
                      14  WARNING MESSAGES DURING USER INPUT PROCESSING
                     147  WARNING MESSAGES DURING ANALYSIS
                      68  ANALYSIS WARNINGS ARE NUMERICAL PROBLEM MESSAGES
                      56  ANALYSIS WARNINGS ARE NEGATIVE EIGENVALUE MESSAGES
                       0  ERROR MESSAGES



     JOB TIME SUMMARY
       USER TIME (SEC)      =   3.6000    
       SYSTEM TIME (SEC)    =  0.60000    
       TOTAL CPU TIME (SEC) =   4.2000    
       WALLCLOCK TIME (SEC) =          5
