 Abaqus/Standard 6.12-1                  DATE 26-oct.-2017 TIME 16:08:07
 SUMMARY OF JOB INFORMATION:
 STEP  INC ATT SEVERE EQUIL TOTAL  TOTAL      STEP       INC OF       DOF    IF
               DISCON ITERS ITERS  TIME/    TIME/LPF    TIME/LPF    MONITOR RIKS
               ITERS               FREQ
   1     1   1     0     3     3  0.0100     0.0100     0.01000   
   1     2   1     0     2     2  0.0200     0.0200     0.01000   
   1     3   1     0     2     2  0.0350     0.0350     0.01500   
   1     4   1     0     3     3  0.0575     0.0575     0.02250   
   1     5   1     0     3     3  0.0912     0.0912     0.03375   
   1     6   1     0     3     3  0.142      0.142      0.05063   
   1     7   1     0     4     4  0.218      0.218      0.07594   
   1     8   1     0     5     5  0.318      0.318      0.1000    
   1     9   1     0     6     6  0.418      0.418      0.1000    
   1    10   1     0     6     6  0.518      0.518      0.1000    
   1    11   1     0     6     6  0.618      0.618      0.1000    
   1    12   1     0     6     6  0.718      0.718      0.1000    
   1    13   1     0     7     7  0.818      0.818      0.1000    
   1    14   1     0     7     7  0.918      0.918      0.1000    
   1    15   1     0     5     5  1.00       1.00       0.08219   
   2     1   1     0     3     3  1.01       0.0100     0.01000   
   2     2   1     0     2     2  1.02       0.0200     0.01000   
   2     3   1     0     2     2  1.03       0.0350     0.01500   
   2     4   1     0     2     2  1.06       0.0575     0.02250   
   2     5   1     0     2     2  1.09       0.0912     0.03375   
   2     6   1     0     3     3  1.14       0.141      0.05000   
   2     7   1     0     2     2  1.19       0.191      0.05000   
   2     8   1     0     2     2  1.24       0.241      0.05000   
   2     9   1     0     3     3  1.29       0.291      0.05000   
   2    10   1     0     3     3  1.34       0.341      0.05000   
   2    11   1     0     3     3  1.39       0.391      0.05000   
   2    12   1     0     3     3  1.44       0.441      0.05000   
   2    13   1     0     3     3  1.49       0.491      0.05000   
   2    14   1     0     3     3  1.54       0.541      0.05000   
   2    15   1     0     3     3  1.59       0.591      0.05000   
   2    16   1     0     3     3  1.64       0.641      0.05000   
   2    17   1     0     3     3  1.69       0.691      0.05000   
   2    18   1     0     3     3  1.74       0.741      0.05000   
   2    19   1     0     3     3  1.79       0.791      0.05000   
   2    20   1     0     3     3  1.84       0.841      0.05000   
   2    21   1     0     3     3  1.89       0.891      0.05000   
   2    22   1     0     4     4  1.94       0.941      0.05000   
   2    23   1     0     4     4  1.99       0.991      0.05000   
   2    24   1     0     2     2  2.00       1.00       0.008750  
   3     1   1     0     4     4  2.10       0.100      0.1000    
   3     2   1     0     3     3  2.20       0.200      0.1000    
   3     3   1     0     4     4  2.35       0.350      0.1500    
   3     4   1     0     4     4  2.58       0.575      0.2250    
   3     5   1     0     6     6  2.91       0.913      0.3375    
   3     6   1     0     4     4  3.00       1.00       0.08750   
   4     1   1     0     4     4  3.10       0.100      0.1000    
   4     2   1     0     2     2  3.20       0.200      0.1000    
   4     3   1     0     2     2  3.30       0.300      0.1000    
   4     4   1     0     2     2  3.40       0.400      0.1000    
   4     5   1     0     2     2  3.50       0.500      0.1000    
   4     6   1     0     2     2  3.60       0.600      0.1000    
   4     7   1     0     2     2  3.70       0.700      0.1000    
   4     8   1     0     2     2  3.80       0.800      0.1000    
   4     9   1     0     2     2  3.90       0.900      0.1000    
   4    10   1     0     2     2  4.00       1.00       0.1000    
                          
 THE ANALYSIS HAS COMPLETED SUCCESSFULLY
