1

   Abaqus 6.12-1                                  Date 26-oct.-2017   Time 16:10:29
   For use by  under license from Dassault Systemes or its subsidiary.

                                                                                 
                                                                                 
 STEP    1     INCREMENT     1     STEP TIME    0.00    


                        S T E P       1     S T A T I C   A N A L Y S I S


                                                                                          

     AUTOMATIC TIME CONTROL WITH -
          A SUGGESTED INITIAL TIME INCREMENT OF                1.000E-02
          AND A TOTAL TIME PERIOD OF                            1.00    
          THE MINIMUM TIME INCREMENT ALLOWED IS                1.000E-10
          THE MAXIMUM TIME INCREMENT ALLOWED IS                0.100    

     LINEAR EQUATION SOLVER TYPE         DIRECT SPARSE

 CONVERGENCE TOLERANCE PARAMETERS FOR FORCE    
     CRITERION FOR RESIDUAL FORCE     FOR A NONLINEAR PROBLEM          5.000E-03
     CRITERION FOR DISP.    CORRECTION IN A NONLINEAR PROBLEM          1.000E-02
     INITIAL VALUE OF TIME AVERAGE FORCE                               1.000E-02
     AVERAGE FORCE     IS TIME AVERAGE FORCE    
     ALTERNATE CRIT. FOR RESIDUAL FORCE     FOR A NONLINEAR PROBLEM    2.000E-02
     CRITERION FOR ZERO FORCE     RELATIVE TO TIME AVRG. FORCE         1.000E-05
     CRITERION FOR RESIDUAL FORCE     WHEN THERE IS ZERO FLUX          1.000E-05
     CRITERION FOR DISP.    CORRECTION WHEN THERE IS ZERO FLUX         1.000E-03
     CRITERION FOR RESIDUAL FORCE     FOR A LINEAR INCREMENT           1.000E-08
     FIELD CONVERSION RATIO                                             1.00    
     CRITERION FOR ZERO FORCE     REL. TO TIME AVRG. MAX. FORCE        1.000E-05
     CRITERION FOR ZERO DISP.    RELATIVE TO CHARACTERISTIC LENGTH     1.000E-08

 CONVERGENCE TOLERANCE PARAMETERS FOR MOMENT   
     CRITERION FOR RESIDUAL MOMENT    FOR A NONLINEAR PROBLEM          5.000E-03
     CRITERION FOR ROTATION CORRECTION IN A NONLINEAR PROBLEM          1.000E-02
     INITIAL VALUE OF TIME AVERAGE MOMENT                              1.000E-02
     AVERAGE MOMENT    IS TIME AVERAGE MOMENT   
     ALTERNATE CRIT. FOR RESIDUAL MOMENT    FOR A NONLINEAR PROBLEM    2.000E-02
     CRITERION FOR ZERO MOMENT    RELATIVE TO TIME AVRG. MOMENT        1.000E-05
     CRITERION FOR RESIDUAL MOMENT    WHEN THERE IS ZERO FLUX          1.000E-05
     CRITERION FOR ROTATION CORRECTION WHEN THERE IS ZERO FLUX         1.000E-03
     CRITERION FOR RESIDUAL MOMENT    FOR A LINEAR INCREMENT           1.000E-08
     FIELD CONVERSION RATIO                                             1.00    
     CRITERION FOR ZERO MOMENT    REL. TO TIME AVRG. MAX. MOMENT       1.000E-05

     VOLUMETRIC STRAIN COMPATIBILITY TOLERANCE FOR HYBRID SOLIDS       1.000E-05
     AXIAL STRAIN COMPATIBILITY TOLERANCE FOR HYBRID BEAMS             1.000E-05
     TRANS. SHEAR STRAIN COMPATIBILITY TOLERANCE FOR HYBRID BEAMS      1.000E-05
     SOFT CONTACT CONSTRAINT COMPATIBILITY TOLERANCE FOR P>P0          5.000E-03
     SOFT CONTACT CONSTRAINT COMPATIBILITY TOLERANCE FOR P=0.0         0.100    
     CONTACT FORCE ERROR TOLERANCE FOR CONVERT SDI=YES                 1.00    
     DISPLACEMENT COMPATIBILITY TOLERANCE FOR DCOUP ELEMENTS           1.000E-05
     ROTATION COMPATIBILITY TOLERANCE FOR DCOUP ELEMENTS               1.000E-05

 EQUILIBRIUM WILL BE CHECKED FOR SEVERE DISCONTINUITY ITERATIONS

 TIME INCREMENTATION CONTROL PARAMETERS:
     FIRST EQUILIBRIUM ITERATION FOR CONSECUTIVE DIVERGENCE CHECK              4
     EQUILIBRIUM ITERATION AT WHICH LOG. CONVERGENCE RATE CHECK BEGINS         8
     EQUILIBRIUM ITERATION AFTER WHICH ALTERNATE RESIDUAL IS USED              9
     MAXIMUM EQUILIBRIUM ITERATIONS ALLOWED                                   16
     EQUILIBRIUM ITERATION COUNT FOR CUT-BACK IN NEXT INCREMENT               10
     MAXIMUM EQUILIB. ITERS IN TWO INCREMENTS FOR TIME INCREMENT INCREASE      4
     MAXIMUM ITERATIONS FOR SEVERE DISCONTINUITIES                            50
     MAXIMUM CUT-BACKS ALLOWED IN AN INCREMENT                                 5
     MAXIMUM DISCON. ITERS IN TWO INCREMENTS FOR TIME INCREMENT INCREASE      50
     MAXIMUM CONTACT AUGMENTATIONS FOR *SURFACE BEHAVIOR,AUGMENTED LAGRANGE   50
     CUT-BACK FACTOR AFTER DIVERGENCE                                 0.2500    
     CUT-BACK FACTOR FOR TOO SLOW CONVERGENCE                         0.5000    
     CUT-BACK FACTOR AFTER TOO MANY EQUILIBRIUM ITERATIONS            0.7500    
     CUT-BACK FACTOR AFTER TOO MANY SEVERE DISCONTINUITY ITERATIONS   0.2500    
     CUT-BACK FACTOR AFTER PROBLEMS IN ELEMENT ASSEMBLY               0.2500    
     INCREASE FACTOR AFTER TWO INCREMENTS THAT CONVERGE QUICKLY        1.500    
     MAX. TIME INCREMENT INCREASE FACTOR ALLOWED                       1.500    
     MAX. TIME INCREMENT INCREASE FACTOR ALLOWED (DYNAMICS)            1.250    
     MAX. TIME INCREMENT INCREASE FACTOR ALLOWED (DIFFUSION)           2.000    
     MINIMUM TIME INCREMENT RATIO FOR EXTRAPOLATION TO OCCUR          0.1000    
     MAX. RATIO OF TIME INCREMENT TO STABILITY LIMIT                   1.000    
     FRACTION OF STABILITY LIMIT FOR NEW TIME INCREMENT               0.9500    
     TIME INCREMENT INCREASE FACTOR BEFORE A TIME POINT                1.000    
     GLOBAL STABILIZATION CONTROL IS NOT USED

          PRINT OF INCREMENT NUMBER, TIME, ETC., EVERY    1  INCREMENTS

     THE MAXIMUM NUMBER OF INCREMENTS IN THIS STEP IS                     500

          LARGE DISPLACEMENT THEORY WILL BE USED

     LINEAR EXTRAPOLATION WILL BE USED

     CHARACTERISTIC ELEMENT LENGTH     0.833    

     DETAILS REGARDING ACTUAL SOLUTION WAVEFRONT REQUESTED

     DETAILED OUTPUT OF DIAGNOSTICS TO DATABASE REQUESTED

     PRINT OF INCREMENT NUMBER, TIME, ETC., TO THE MESSAGE FILE EVERY     1  INCREMENTS

     EQUATIONS ARE BEING REORDERED TO MINIMIZE WAVEFRONT

     COLLECTING MODEL CONSTRAINT INFORMATION FOR OVERCONSTRAINT CHECKS

     COLLECTING STEP CONSTRAINT INFORMATION FOR OVERCONSTRAINT CHECKS


  INCREMENT     1 STARTS. ATTEMPT NUMBER  1, TIME INCREMENT  1.000E-02

  NUMBER OF EQUATIONS =       78     NUMBER OF FLOATING PT. OPERATIONS =  1.44E+04

     CHECK POINT   START OF SOLVER    

     CHECK POINT  END OF SOLVER       

       ELAPSED USER TIME (SEC)      =   0.0000    
       ELAPSED SYSTEM TIME (SEC)    =   0.0000    
       ELAPSED TOTAL CPU TIME (SEC) =   0.0000    
       ELAPSED WALLCLOCK TIME (SEC) =          0
 

 ***WARNING: SOLVER PROBLEM. NUMERICAL SINGULARITY WHEN PROCESSING NODE 
             PART-1-1.7 D.O.F. 4 RATIO = 1.23764E+15.

               CONVERGENCE CHECKS FOR EQUILIBRIUM ITERATION     1


 AVERAGE FORCE                       826.       TIME AVG. FORCE        826.    
 LARGEST RESIDUAL FORCE             6.219E+03   AT NODE          1   DOF  1
   INSTANCE: PART-1-1                                                                        
 LARGEST INCREMENT OF DISP.         3.927E-02   AT NODE          7   DOF  2
   INSTANCE: PART-1-1                                                                        
 LARGEST CORRECTION TO DISP.        3.927E-02   AT NODE          7   DOF  2
   INSTANCE: PART-1-1                                                                        
          FORCE     EQUILIBRIUM NOT ACHIEVED WITHIN TOLERANCE.

 AVERAGE MOMENT                      8.38       TIME AVG. MOMENT       8.38    
 LARGEST RESIDUAL MOMENT           -0.120       AT NODE          2   DOF  6
   INSTANCE: PART-1-1                                                                        
 LARGEST INCREMENT OF ROTATION      1.571E-02   AT NODE          1   DOF  6
   INSTANCE: PART-1-1                                                                        
 LARGEST CORRECTION TO ROTATION     1.571E-02   AT NODE          1   DOF  6
   INSTANCE: PART-1-1                                                                        
          MOMENT    EQUILIBRIUM NOT ACHIEVED WITHIN TOLERANCE.

  NUMBER OF EQUATIONS =       78     NUMBER OF FLOATING PT. OPERATIONS =  1.44E+04

     CHECK POINT   START OF SOLVER    

     CHECK POINT  END OF SOLVER       

       ELAPSED USER TIME (SEC)      =   0.0000    
       ELAPSED SYSTEM TIME (SEC)    =   0.0000    
       ELAPSED TOTAL CPU TIME (SEC) =   0.0000    
       ELAPSED WALLCLOCK TIME (SEC) =          0

               CONVERGENCE CHECKS FOR EQUILIBRIUM ITERATION     2


 AVERAGE FORCE                      3.041E-02   TIME AVG. FORCE       3.041E-02
 LARGEST RESIDUAL FORCE            -0.322       AT NODE          1   DOF  1
   INSTANCE: PART-1-1                                                                        
 LARGEST INCREMENT OF DISP.         3.927E-02   AT NODE          7   DOF  2
   INSTANCE: PART-1-1                                                                        
 LARGEST CORRECTION TO DISP.        2.042E-04   AT NODE          1   DOF  1
   INSTANCE: PART-1-1                                                                        
          FORCE     EQUILIBRIUM NOT ACHIEVED WITHIN TOLERANCE.

 AVERAGE MOMENT                      8.38       TIME AVG. MOMENT       8.38    
 LARGEST RESIDUAL MOMENT           -8.575E-04   AT NODE         12   DOF  6
   INSTANCE: PART-1-1                                                                        
 LARGEST INCREMENT OF ROTATION      1.571E-02   AT NODE          1   DOF  6
   INSTANCE: PART-1-1                                                                        
 LARGEST CORRECTION TO ROTATION     3.916E-07   AT NODE         11   DOF  6
   INSTANCE: PART-1-1                                                                        
          THE MOMENT    EQUILIBRIUM EQUATIONS HAVE CONVERGED

  NUMBER OF EQUATIONS =       78     NUMBER OF FLOATING PT. OPERATIONS =  1.44E+04

     CHECK POINT   START OF SOLVER    

     CHECK POINT  END OF SOLVER       

       ELAPSED USER TIME (SEC)      =   0.0000    
       ELAPSED SYSTEM TIME (SEC)    =   0.0000    
       ELAPSED TOTAL CPU TIME (SEC) =   0.0000    
       ELAPSED WALLCLOCK TIME (SEC) =          0
 

 ***WARNING: THE SYSTEM MATRIX HAS 1 NEGATIVE EIGENVALUES.

     IN AN EIGENVALUE EXTRACTION STEP THE NUMBER OF NEGATIVE EIGENVALUES IS 
     EQUAL TO THE NUMBER OF EIGENVALUES BELOW THE CURRENT SHIFT POINT.
     THIS MAY BE USED TO CHECK THAT EIGENVALUES HAVE NOT BEEN MISSED.
     NOTE: THE LANCZOS EIGENSOLVER APPLIES AN INTERNAL SHIFT WHICH WILL
     RESULT IN NEGATIVE EIGENVALUES.

     IN A DIRECT-SOLUTION STEADY-STATE DYNAMIC ANALYSIS, NEGATIVE
     EIGENVALUES ARE EXPECTED. A STATIC ANALYSIS CAN BE USED TO VERIFY THAT THE SYSTEM IS STABLE.

     IN OTHER CASES, NEGATIVE EIGENVALUES MEAN THAT THE SYSTEM MATRIX IS NOT 
     POSITIVE DEFINITE:
     FOR EXAMPLE, A BIFURCATION (BUCKLING) LOAD MAY HAVE BEEN EXCEEDED.

     NEGATIVE EIGENVALUES MAY ALSO OCCUR IF QUADRATIC ELEMENTS ARE
     USED TO DEFINE CONTACT SURFACES.


               CONVERGENCE CHECKS FOR EQUILIBRIUM ITERATION     3


 AVERAGE FORCE                      7.417E-07   TIME AVG. FORCE        10.1    
                                                (FROM MOMENT    FIELD)
 LARGEST RESIDUAL FORCE            -3.091E-06   AT NODE         12   DOF  1
   INSTANCE: PART-1-1                                                                        
 LARGEST INCREMENT OF DISP.         3.927E-02   AT NODE          7   DOF  2
   INSTANCE: PART-1-1                                                                        
 LARGEST CORRECTION TO DISP.        1.234E-06   AT NODE          7   DOF  2
   INSTANCE: PART-1-1                                                                        
          THERE IS ZERO FORCE     EVERYWHERE

 AVERAGE MOMENT                      8.38       TIME AVG. MOMENT       8.38    
 LARGEST RESIDUAL MOMENT            7.465E-08   AT NODE         12   DOF  6
   INSTANCE: PART-1-1                                                                        
 LARGEST INCREMENT OF ROTATION      1.571E-02   AT NODE          1   DOF  6
   INSTANCE: PART-1-1                                                                        
 LARGEST CORRECTION TO ROTATION     3.916E-07   AT NODE          3   DOF  6
   INSTANCE: PART-1-1                                                                        
          THE MOMENT    EQUILIBRIUM EQUATIONS HAVE CONVERGED

 ITERATION SUMMARY FOR THE INCREMENT:   3 TOTAL ITERATIONS, OF WHICH
   0 ARE SEVERE DISCONTINUITY ITERATIONS AND  3 ARE EQUILIBRIUM ITERATIONS.

 TIME INCREMENT COMPLETED  1.000E-02,  FRACTION OF STEP COMPLETED  1.000E-02
 STEP TIME COMPLETED       1.000E-02,  TOTAL TIME COMPLETED        1.000E-02


  INCREMENT     2 STARTS. ATTEMPT NUMBER  1, TIME INCREMENT  1.000E-02

  NUMBER OF EQUATIONS =       78     NUMBER OF FLOATING PT. OPERATIONS =  1.44E+04

     CHECK POINT   START OF SOLVER    

     CHECK POINT  END OF SOLVER       

       ELAPSED USER TIME (SEC)      =   0.0000    
       ELAPSED SYSTEM TIME (SEC)    =   0.0000    
       ELAPSED TOTAL CPU TIME (SEC) =   0.0000    
       ELAPSED WALLCLOCK TIME (SEC) =          0
 

 ***WARNING: THE SYSTEM MATRIX HAS 1 NEGATIVE EIGENVALUES.
             EXPLANATIONS ARE SUGGESTED AFTER THE FIRST OCCURRENCE OF THIS MESSAGE.

               CONVERGENCE CHECKS FOR EQUILIBRIUM ITERATION     1


 AVERAGE FORCE                      0.122       TIME AVG. FORCE       0.122    
 LARGEST RESIDUAL FORCE              1.29       AT NODE         13   DOF  1
   INSTANCE: PART-1-1                                                                        
 LARGEST INCREMENT OF DISP.         3.926E-02   AT NODE          7   DOF  2
   INSTANCE: PART-1-1                                                                        
 LARGEST CORRECTION TO DISP.       -4.083E-04   AT NODE         13   DOF  1
   INSTANCE: PART-1-1                                                                        
          FORCE     EQUILIBRIUM NOT ACHIEVED WITHIN TOLERANCE.

 AVERAGE MOMENT                      50.3       TIME AVG. MOMENT       29.3    
 LARGEST RESIDUAL MOMENT           -3.431E-03   AT NODE         12   DOF  6
   INSTANCE: PART-1-1                                                                        
 LARGEST INCREMENT OF ROTATION      1.571E-02   AT NODE          1   DOF  6
   INSTANCE: PART-1-1                                                                        
 LARGEST CORRECTION TO ROTATION    -9.620E-07   AT NODE          4   DOF  6
   INSTANCE: PART-1-1                                                                        
          THE MOMENT    EQUILIBRIUM EQUATIONS HAVE CONVERGED

  NUMBER OF EQUATIONS =       78     NUMBER OF FLOATING PT. OPERATIONS =  1.44E+04

     CHECK POINT   START OF SOLVER    

     CHECK POINT  END OF SOLVER       

       ELAPSED USER TIME (SEC)      =   0.0000    
       ELAPSED SYSTEM TIME (SEC)    =   0.0000    
       ELAPSED TOTAL CPU TIME (SEC) =   0.0000    
       ELAPSED WALLCLOCK TIME (SEC) =          0
 

 ***WARNING: THE SYSTEM MATRIX HAS 1 NEGATIVE EIGENVALUES.
             EXPLANATIONS ARE SUGGESTED AFTER THE FIRST OCCURRENCE OF THIS MESSAGE.

               CONVERGENCE CHECKS FOR EQUILIBRIUM ITERATION     2


 AVERAGE FORCE                      4.788E-06   TIME AVG. FORCE        10.1    
                                                (FROM MOMENT    FIELD)
 LARGEST RESIDUAL FORCE             1.608E-05   AT NODE          2   DOF  1
   INSTANCE: PART-1-1                                                                        
 LARGEST INCREMENT OF DISP.         3.926E-02   AT NODE          7   DOF  2
   INSTANCE: PART-1-1                                                                        
 LARGEST CORRECTION TO DISP.        3.115E-06   AT NODE          7   DOF  2
   INSTANCE: PART-1-1                                                                        
          THERE IS ZERO FORCE     EVERYWHERE

 AVERAGE MOMENT                      50.3       TIME AVG. MOMENT       29.3    
 LARGEST RESIDUAL MOMENT            5.970E-07   AT NODE         12   DOF  6
   INSTANCE: PART-1-1                                                                        
 LARGEST INCREMENT OF ROTATION      1.571E-02   AT NODE          1   DOF  6
   INSTANCE: PART-1-1                                                                        
 LARGEST CORRECTION TO ROTATION     9.621E-07   AT NODE          4   DOF  6
   INSTANCE: PART-1-1                                                                        
          THE MOMENT    EQUILIBRIUM EQUATIONS HAVE CONVERGED
          TIME INCREMENT MAY NOW INCREASE TO    1.500E-02

 ITERATION SUMMARY FOR THE INCREMENT:   2 TOTAL ITERATIONS, OF WHICH
   0 ARE SEVERE DISCONTINUITY ITERATIONS AND  2 ARE EQUILIBRIUM ITERATIONS.

 TIME INCREMENT COMPLETED  1.000E-02,  FRACTION OF STEP COMPLETED  2.000E-02
 STEP TIME COMPLETED       2.000E-02,  TOTAL TIME COMPLETED        2.000E-02


  INCREMENT     3 STARTS. ATTEMPT NUMBER  1, TIME INCREMENT  1.500E-02

  NUMBER OF EQUATIONS =       78     NUMBER OF FLOATING PT. OPERATIONS =  1.44E+04

     CHECK POINT   START OF SOLVER    

     CHECK POINT  END OF SOLVER       

       ELAPSED USER TIME (SEC)      =   0.0000    
       ELAPSED SYSTEM TIME (SEC)    =   0.0000    
       ELAPSED TOTAL CPU TIME (SEC) =   0.0000    
       ELAPSED WALLCLOCK TIME (SEC) =          0
 

 ***WARNING: THE SYSTEM MATRIX HAS 1 NEGATIVE EIGENVALUES.
             EXPLANATIONS ARE SUGGESTED AFTER THE FIRST OCCURRENCE OF THIS MESSAGE.

               CONVERGENCE CHECKS FOR EQUILIBRIUM ITERATION     1


 AVERAGE FORCE                      0.436       TIME AVG. FORCE       0.436    
 LARGEST RESIDUAL FORCE             -4.52       AT NODE          1   DOF  1
   INSTANCE: PART-1-1                                                                        
 LARGEST INCREMENT OF DISP.         5.887E-02   AT NODE          7   DOF  2
   INSTANCE: PART-1-1                                                                        
 LARGEST CORRECTION TO DISP.       -7.652E-04   AT NODE         13   DOF  1
   INSTANCE: PART-1-1                                                                        
          FORCE     EQUILIBRIUM NOT ACHIEVED WITHIN TOLERANCE.

 AVERAGE MOMENT                      88.0       TIME AVG. MOMENT       48.9    
 LARGEST RESIDUAL MOMENT            1.122E-02   AT NODE          2   DOF  6
   INSTANCE: PART-1-1                                                                        
 LARGEST INCREMENT OF ROTATION      2.356E-02   AT NODE          1   DOF  6
   INSTANCE: PART-1-1                                                                        
 LARGEST CORRECTION TO ROTATION    -3.147E-06   AT NODE          4   DOF  6
   INSTANCE: PART-1-1                                                                        
          THE MOMENT    EQUILIBRIUM EQUATIONS HAVE CONVERGED

  NUMBER OF EQUATIONS =       78     NUMBER OF FLOATING PT. OPERATIONS =  1.44E+04

     CHECK POINT   START OF SOLVER    

     CHECK POINT  END OF SOLVER       

       ELAPSED USER TIME (SEC)      =   0.0000    
       ELAPSED SYSTEM TIME (SEC)    =   0.0000    
       ELAPSED TOTAL CPU TIME (SEC) =   0.0000    
       ELAPSED WALLCLOCK TIME (SEC) =          0
 

 ***WARNING: THE SYSTEM MATRIX HAS 1 NEGATIVE EIGENVALUES.
             EXPLANATIONS ARE SUGGESTED AFTER THE FIRST OCCURRENCE OF THIS MESSAGE.

               CONVERGENCE CHECKS FOR EQUILIBRIUM ITERATION     2


 AVERAGE FORCE                      5.185E-05   TIME AVG. FORCE        35.2    
                                                (FROM MOMENT    FIELD)
 LARGEST RESIDUAL FORCE            -1.709E-04   AT NODE         12   DOF  1
   INSTANCE: PART-1-1                                                                        
 LARGEST INCREMENT OF DISP.         5.888E-02   AT NODE          7   DOF  2
   INSTANCE: PART-1-1                                                                        
 LARGEST CORRECTION TO DISP.        1.019E-05   AT NODE          7   DOF  2
   INSTANCE: PART-1-1                                                                        
          THERE IS ZERO FORCE     EVERYWHERE

 AVERAGE MOMENT                      88.0       TIME AVG. MOMENT       48.9    
 LARGEST RESIDUAL MOMENT           -3.677E-06   AT NODE          2   DOF  6
   INSTANCE: PART-1-1                                                                        
 LARGEST INCREMENT OF ROTATION      2.356E-02   AT NODE          1   DOF  6
   INSTANCE: PART-1-1                                                                        
 LARGEST CORRECTION TO ROTATION     3.148E-06   AT NODE          4   DOF  6
   INSTANCE: PART-1-1                                                                        
          THE MOMENT    EQUILIBRIUM EQUATIONS HAVE CONVERGED
          TIME INCREMENT MAY NOW INCREASE TO    2.250E-02

 ITERATION SUMMARY FOR THE INCREMENT:   2 TOTAL ITERATIONS, OF WHICH
   0 ARE SEVERE DISCONTINUITY ITERATIONS AND  2 ARE EQUILIBRIUM ITERATIONS.

 TIME INCREMENT COMPLETED  1.500E-02,  FRACTION OF STEP COMPLETED  3.500E-02
 STEP TIME COMPLETED       3.500E-02,  TOTAL TIME COMPLETED        3.500E-02


  INCREMENT     4 STARTS. ATTEMPT NUMBER  1, TIME INCREMENT  2.250E-02

  NUMBER OF EQUATIONS =       78     NUMBER OF FLOATING PT. OPERATIONS =  1.44E+04

     CHECK POINT   START OF SOLVER    

     CHECK POINT  END OF SOLVER       

       ELAPSED USER TIME (SEC)      =   0.0000    
       ELAPSED SYSTEM TIME (SEC)    =  0.10000    
       ELAPSED TOTAL CPU TIME (SEC) =  0.10000    
       ELAPSED WALLCLOCK TIME (SEC) =          1
 

 ***WARNING: THE SYSTEM MATRIX HAS 1 NEGATIVE EIGENVALUES.
             EXPLANATIONS ARE SUGGESTED AFTER THE FIRST OCCURRENCE OF THIS MESSAGE.

               CONVERGENCE CHECKS FOR EQUILIBRIUM ITERATION     1


 AVERAGE FORCE                       2.26       TIME AVG. FORCE        2.26    
 LARGEST RESIDUAL FORCE              22.8       AT NODE         13   DOF  1
   INSTANCE: PART-1-1                                                                        
 LARGEST INCREMENT OF DISP.         8.820E-02   AT NODE          7   DOF  2
   INSTANCE: PART-1-1                                                                        
 LARGEST CORRECTION TO DISP.       -1.720E-03   AT NODE         13   DOF  1
   INSTANCE: PART-1-1                                                                        
          FORCE     EQUILIBRIUM NOT ACHIEVED WITHIN TOLERANCE.

 AVERAGE MOMENT                      145.       TIME AVG. MOMENT       72.8    
 LARGEST RESIDUAL MOMENT            4.108E-02   AT NODE          2   DOF  6
   INSTANCE: PART-1-1                                                                        
 LARGEST INCREMENT OF ROTATION      3.534E-02   AT NODE          1   DOF  6
   INSTANCE: PART-1-1                                                                        
 LARGEST CORRECTION TO ROTATION    -1.150E-05   AT NODE          4   DOF  6
   INSTANCE: PART-1-1                                                                        
          THE MOMENT    EQUILIBRIUM EQUATIONS HAVE CONVERGED

  NUMBER OF EQUATIONS =       78     NUMBER OF FLOATING PT. OPERATIONS =  1.44E+04

     CHECK POINT   START OF SOLVER    

     CHECK POINT  END OF SOLVER       

       ELAPSED USER TIME (SEC)      =   0.0000    
       ELAPSED SYSTEM TIME (SEC)    =  0.10000    
       ELAPSED TOTAL CPU TIME (SEC) =  0.10000    
       ELAPSED WALLCLOCK TIME (SEC) =          0
 

 ***WARNING: THE SYSTEM MATRIX HAS 1 NEGATIVE EIGENVALUES.
             EXPLANATIONS ARE SUGGESTED AFTER THE FIRST OCCURRENCE OF THIS MESSAGE.

               CONVERGENCE CHECKS FOR EQUILIBRIUM ITERATION     2


 AVERAGE FORCE                      7.077E-04   TIME AVG. FORCE       7.077E-04
 LARGEST RESIDUAL FORCE            -2.274E-03   AT NODE         12   DOF  1
   INSTANCE: PART-1-1                                                                        
 LARGEST INCREMENT OF DISP.         8.824E-02   AT NODE          7   DOF  2
   INSTANCE: PART-1-1                                                                        
 LARGEST CORRECTION TO DISP.        3.721E-05   AT NODE          7   DOF  2
   INSTANCE: PART-1-1                                                                        
          FORCE     EQUILIBRIUM NOT ACHIEVED WITHIN TOLERANCE.

 AVERAGE MOMENT                      145.       TIME AVG. MOMENT       72.8    
 LARGEST RESIDUAL MOMENT            3.066E-05   AT NODE         12   DOF  6
   INSTANCE: PART-1-1                                                                        
 LARGEST INCREMENT OF ROTATION      3.534E-02   AT NODE          1   DOF  6
   INSTANCE: PART-1-1                                                                        
 LARGEST CORRECTION TO ROTATION     1.152E-05   AT NODE          4   DOF  6
   INSTANCE: PART-1-1                                                                        
          THE MOMENT    EQUILIBRIUM EQUATIONS HAVE CONVERGED

  NUMBER OF EQUATIONS =       78     NUMBER OF FLOATING PT. OPERATIONS =  1.44E+04

     CHECK POINT   START OF SOLVER    

     CHECK POINT  END OF SOLVER       

       ELAPSED USER TIME (SEC)      =   0.0000    
       ELAPSED SYSTEM TIME (SEC)    =   0.0000    
       ELAPSED TOTAL CPU TIME (SEC) =   0.0000    
       ELAPSED WALLCLOCK TIME (SEC) =          0
 

 ***WARNING: THE SYSTEM MATRIX HAS 1 NEGATIVE EIGENVALUES.
             EXPLANATIONS ARE SUGGESTED AFTER THE FIRST OCCURRENCE OF THIS MESSAGE.

               CONVERGENCE CHECKS FOR EQUILIBRIUM ITERATION     3


 AVERAGE FORCE                      3.911E-09   TIME AVG. FORCE        58.6    
                                                (FROM MOMENT    FIELD)
 LARGEST RESIDUAL FORCE             2.658E-08   AT NODE          2   DOF  1
   INSTANCE: PART-1-1                                                                        
 LARGEST INCREMENT OF DISP.         8.824E-02   AT NODE          7   DOF  2
   INSTANCE: PART-1-1                                                                        
 LARGEST CORRECTION TO DISP.       -6.390E-08   AT NODE          7   DOF  2
   INSTANCE: PART-1-1                                                                        
          THERE IS ZERO FORCE     EVERYWHERE

 AVERAGE MOMENT                      145.       TIME AVG. MOMENT       72.8    
 LARGEST RESIDUAL MOMENT           -5.488E-09   AT NODE          2   DOF  6
   INSTANCE: PART-1-1                                                                        
 LARGEST INCREMENT OF ROTATION      3.534E-02   AT NODE          1   DOF  6
   INSTANCE: PART-1-1                                                                        
 LARGEST CORRECTION TO ROTATION    -2.130E-08   AT NODE          3   DOF  6
   INSTANCE: PART-1-1                                                                        
          THE MOMENT    EQUILIBRIUM EQUATIONS HAVE CONVERGED
          TIME INCREMENT MAY NOW INCREASE TO    3.375E-02

 ITERATION SUMMARY FOR THE INCREMENT:   3 TOTAL ITERATIONS, OF WHICH
   0 ARE SEVERE DISCONTINUITY ITERATIONS AND  3 ARE EQUILIBRIUM ITERATIONS.

 TIME INCREMENT COMPLETED  2.250E-02,  FRACTION OF STEP COMPLETED  5.750E-02
 STEP TIME COMPLETED       5.750E-02,  TOTAL TIME COMPLETED        5.750E-02


  INCREMENT     5 STARTS. ATTEMPT NUMBER  1, TIME INCREMENT  3.375E-02

  NUMBER OF EQUATIONS =       78     NUMBER OF FLOATING PT. OPERATIONS =  1.44E+04

     CHECK POINT   START OF SOLVER    

     CHECK POINT  END OF SOLVER       

       ELAPSED USER TIME (SEC)      =   0.0000    
       ELAPSED SYSTEM TIME (SEC)    =   0.0000    
       ELAPSED TOTAL CPU TIME (SEC) =   0.0000    
       ELAPSED WALLCLOCK TIME (SEC) =          0
 

 ***WARNING: THE SYSTEM MATRIX HAS 1 NEGATIVE EIGENVALUES.
             EXPLANATIONS ARE SUGGESTED AFTER THE FIRST OCCURRENCE OF THIS MESSAGE.

               CONVERGENCE CHECKS FOR EQUILIBRIUM ITERATION     1


 AVERAGE FORCE                       11.9       TIME AVG. FORCE        11.9    
 LARGEST RESIDUAL FORCE              115.       AT NODE         13   DOF  1
   INSTANCE: PART-1-1                                                                        
 LARGEST INCREMENT OF DISP.         0.132       AT NODE          7   DOF  2
   INSTANCE: PART-1-1                                                                        
 LARGEST CORRECTION TO DISP.       -3.858E-03   AT NODE         13   DOF  1
   INSTANCE: PART-1-1                                                                        
          FORCE     EQUILIBRIUM NOT ACHIEVED WITHIN TOLERANCE.

 AVERAGE MOMENT                      229.       TIME AVG. MOMENT       104.    
 LARGEST RESIDUAL MOMENT            0.144       AT NODE          2   DOF  6
   INSTANCE: PART-1-1                                                                        
 LARGEST INCREMENT OF ROTATION      5.301E-02   AT NODE          1   DOF  6
   INSTANCE: PART-1-1                                                                        
 LARGEST CORRECTION TO ROTATION     4.005E-05   AT NODE         10   DOF  6
   INSTANCE: PART-1-1                                                                        
          THE MOMENT    EQUILIBRIUM EQUATIONS HAVE CONVERGED

  NUMBER OF EQUATIONS =       78     NUMBER OF FLOATING PT. OPERATIONS =  1.44E+04

     CHECK POINT   START OF SOLVER    

     CHECK POINT  END OF SOLVER       

       ELAPSED USER TIME (SEC)      =  0.10000    
       ELAPSED SYSTEM TIME (SEC)    =   0.0000    
       ELAPSED TOTAL CPU TIME (SEC) =  0.10000    
       ELAPSED WALLCLOCK TIME (SEC) =          0
 

 ***WARNING: THE SYSTEM MATRIX HAS 1 NEGATIVE EIGENVALUES.
             EXPLANATIONS ARE SUGGESTED AFTER THE FIRST OCCURRENCE OF THIS MESSAGE.

               CONVERGENCE CHECKS FOR EQUILIBRIUM ITERATION     2


 AVERAGE FORCE                      8.895E-03   TIME AVG. FORCE       8.895E-03
 LARGEST RESIDUAL FORCE            -2.746E-02   AT NODE         12   DOF  1
   INSTANCE: PART-1-1                                                                        
 LARGEST INCREMENT OF DISP.         0.132       AT NODE          7   DOF  2
   INSTANCE: PART-1-1                                                                        
 LARGEST CORRECTION TO DISP.        1.298E-04   AT NODE          7   DOF  2
   INSTANCE: PART-1-1                                                                        
          FORCE     EQUILIBRIUM NOT ACHIEVED WITHIN TOLERANCE.

 AVERAGE MOMENT                      229.       TIME AVG. MOMENT       104.    
 LARGEST RESIDUAL MOMENT           -2.478E-04   AT NODE          2   DOF  6
   INSTANCE: PART-1-1                                                                        
 LARGEST INCREMENT OF ROTATION      5.301E-02   AT NODE          1   DOF  6
   INSTANCE: PART-1-1                                                                        
 LARGEST CORRECTION TO ROTATION     4.034E-05   AT NODE          4   DOF  6
   INSTANCE: PART-1-1                                                                        
          THE MOMENT    EQUILIBRIUM EQUATIONS HAVE CONVERGED

  NUMBER OF EQUATIONS =       78     NUMBER OF FLOATING PT. OPERATIONS =  1.44E+04

     CHECK POINT   START OF SOLVER    

     CHECK POINT  END OF SOLVER       

       ELAPSED USER TIME (SEC)      =   0.0000    
       ELAPSED SYSTEM TIME (SEC)    =   0.0000    
       ELAPSED TOTAL CPU TIME (SEC) =   0.0000    
       ELAPSED WALLCLOCK TIME (SEC) =          0
 

 ***WARNING: THE SYSTEM MATRIX HAS 1 NEGATIVE EIGENVALUES.
             EXPLANATIONS ARE SUGGESTED AFTER THE FIRST OCCURRENCE OF THIS MESSAGE.

               CONVERGENCE CHECKS FOR EQUILIBRIUM ITERATION     3


 AVERAGE FORCE                      5.083E-07   TIME AVG. FORCE        87.3    
                                                (FROM MOMENT    FIELD)
 LARGEST RESIDUAL FORCE             2.093E-06   AT NODE          2   DOF  1
   INSTANCE: PART-1-1                                                                        
 LARGEST INCREMENT OF DISP.         0.132       AT NODE          7   DOF  2
   INSTANCE: PART-1-1                                                                        
 LARGEST CORRECTION TO DISP.       -9.724E-07   AT NODE          7   DOF  2
   INSTANCE: PART-1-1                                                                        
          THERE IS ZERO FORCE     EVERYWHERE

 AVERAGE MOMENT                      229.       TIME AVG. MOMENT       104.    
 LARGEST RESIDUAL MOMENT           -1.055E-07   AT NODE          2   DOF  6
   INSTANCE: PART-1-1                                                                        
 LARGEST INCREMENT OF ROTATION      5.301E-02   AT NODE          1   DOF  6
   INSTANCE: PART-1-1                                                                        
 LARGEST CORRECTION TO ROTATION    -3.248E-07   AT NODE          3   DOF  6
   INSTANCE: PART-1-1                                                                        
          THE MOMENT    EQUILIBRIUM EQUATIONS HAVE CONVERGED
          TIME INCREMENT MAY NOW INCREASE TO    5.063E-02

 ITERATION SUMMARY FOR THE INCREMENT:   3 TOTAL ITERATIONS, OF WHICH
   0 ARE SEVERE DISCONTINUITY ITERATIONS AND  3 ARE EQUILIBRIUM ITERATIONS.

 TIME INCREMENT COMPLETED  3.375E-02,  FRACTION OF STEP COMPLETED  9.125E-02
 STEP TIME COMPLETED       9.125E-02,  TOTAL TIME COMPLETED        9.125E-02


  INCREMENT     6 STARTS. ATTEMPT NUMBER  1, TIME INCREMENT  5.063E-02

  NUMBER OF EQUATIONS =       78     NUMBER OF FLOATING PT. OPERATIONS =  1.44E+04

     CHECK POINT   START OF SOLVER    

     CHECK POINT  END OF SOLVER       

       ELAPSED USER TIME (SEC)      =   0.0000    
       ELAPSED SYSTEM TIME (SEC)    =   0.0000    
       ELAPSED TOTAL CPU TIME (SEC) =   0.0000    
       ELAPSED WALLCLOCK TIME (SEC) =          0
 

 ***WARNING: THE SYSTEM MATRIX HAS 1 NEGATIVE EIGENVALUES.
             EXPLANATIONS ARE SUGGESTED AFTER THE FIRST OCCURRENCE OF THIS MESSAGE.

               CONVERGENCE CHECKS FOR EQUILIBRIUM ITERATION     1


 AVERAGE FORCE                       62.7       TIME AVG. FORCE        62.7    
 LARGEST RESIDUAL FORCE             -571.       AT NODE          1   DOF  1
   INSTANCE: PART-1-1                                                                        
 LARGEST INCREMENT OF DISP.         0.197       AT NODE          7   DOF  2
   INSTANCE: PART-1-1                                                                        
 LARGEST CORRECTION TO DISP.        8.625E-03   AT NODE          1   DOF  1
   INSTANCE: PART-1-1                                                                        
          FORCE     EQUILIBRIUM NOT ACHIEVED WITHIN TOLERANCE.

 AVERAGE MOMENT                      357.       TIME AVG. MOMENT       146.    
 LARGEST RESIDUAL MOMENT            0.483       AT NODE          2   DOF  6
   INSTANCE: PART-1-1                                                                        
 LARGEST INCREMENT OF ROTATION      7.952E-02   AT NODE          1   DOF  6
   INSTANCE: PART-1-1                                                                        
 LARGEST CORRECTION TO ROTATION    -1.324E-04   AT NODE          4   DOF  6
   INSTANCE: PART-1-1                                                                        
          THE MOMENT    EQUILIBRIUM EQUATIONS HAVE CONVERGED

  NUMBER OF EQUATIONS =       78     NUMBER OF FLOATING PT. OPERATIONS =  1.44E+04

     CHECK POINT   START OF SOLVER    

     CHECK POINT  END OF SOLVER       

       ELAPSED USER TIME (SEC)      =   0.0000    
       ELAPSED SYSTEM TIME (SEC)    =   0.0000    
       ELAPSED TOTAL CPU TIME (SEC) =   0.0000    
       ELAPSED WALLCLOCK TIME (SEC) =          0
 

 ***WARNING: THE SYSTEM MATRIX HAS 1 NEGATIVE EIGENVALUES.
             EXPLANATIONS ARE SUGGESTED AFTER THE FIRST OCCURRENCE OF THIS MESSAGE.

               CONVERGENCE CHECKS FOR EQUILIBRIUM ITERATION     2


 AVERAGE FORCE                      0.105       TIME AVG. FORCE       0.105    
 LARGEST RESIDUAL FORCE            -0.306       AT NODE         12   DOF  1
   INSTANCE: PART-1-1                                                                        
 LARGEST INCREMENT OF DISP.         0.197       AT NODE          7   DOF  2
   INSTANCE: PART-1-1                                                                        
 LARGEST CORRECTION TO DISP.        4.368E-04   AT NODE          7   DOF  2
   INSTANCE: PART-1-1                                                                        
          FORCE     EQUILIBRIUM NOT ACHIEVED WITHIN TOLERANCE.

 AVERAGE MOMENT                      357.       TIME AVG. MOMENT       146.    
 LARGEST RESIDUAL MOMENT           -1.972E-03   AT NODE          2   DOF  6
   INSTANCE: PART-1-1                                                                        
 LARGEST INCREMENT OF ROTATION      7.952E-02   AT NODE          1   DOF  6
   INSTANCE: PART-1-1                                                                        
 LARGEST CORRECTION TO ROTATION     1.368E-04   AT NODE          4   DOF  6
   INSTANCE: PART-1-1                                                                        
          THE MOMENT    EQUILIBRIUM EQUATIONS HAVE CONVERGED

  NUMBER OF EQUATIONS =       78     NUMBER OF FLOATING PT. OPERATIONS =  1.44E+04

     CHECK POINT   START OF SOLVER    

     CHECK POINT  END OF SOLVER       

       ELAPSED USER TIME (SEC)      =   0.0000    
       ELAPSED SYSTEM TIME (SEC)    =   0.0000    
       ELAPSED TOTAL CPU TIME (SEC) =   0.0000    
       ELAPSED WALLCLOCK TIME (SEC) =          0
 

 ***WARNING: THE SYSTEM MATRIX HAS 1 NEGATIVE EIGENVALUES.
             EXPLANATIONS ARE SUGGESTED AFTER THE FIRST OCCURRENCE OF THIS MESSAGE.

               CONVERGENCE CHECKS FOR EQUILIBRIUM ITERATION     3


 AVERAGE FORCE                      1.296E-04   TIME AVG. FORCE        125.    
                                                (FROM MOMENT    FIELD)
 LARGEST RESIDUAL FORCE             5.055E-04   AT NODE          2   DOF  1
   INSTANCE: PART-1-1                                                                        
 LARGEST INCREMENT OF DISP.         0.197       AT NODE          7   DOF  2
   INSTANCE: PART-1-1                                                                        
 LARGEST CORRECTION TO DISP.       -1.517E-05   AT NODE          7   DOF  2
   INSTANCE: PART-1-1                                                                        
          THERE IS ZERO FORCE     EVERYWHERE

 AVERAGE MOMENT                      357.       TIME AVG. MOMENT       146.    
 LARGEST RESIDUAL MOMENT            1.841E-06   AT NODE         12   DOF  6
   INSTANCE: PART-1-1                                                                        
 LARGEST INCREMENT OF ROTATION      7.952E-02   AT NODE          1   DOF  6
   INSTANCE: PART-1-1                                                                        
 LARGEST CORRECTION TO ROTATION    -5.094E-06   AT NODE          3   DOF  6
   INSTANCE: PART-1-1                                                                        
          THE MOMENT    EQUILIBRIUM EQUATIONS HAVE CONVERGED
          TIME INCREMENT MAY NOW INCREASE TO    7.594E-02

 ITERATION SUMMARY FOR THE INCREMENT:   3 TOTAL ITERATIONS, OF WHICH
   0 ARE SEVERE DISCONTINUITY ITERATIONS AND  3 ARE EQUILIBRIUM ITERATIONS.

 TIME INCREMENT COMPLETED  5.063E-02,  FRACTION OF STEP COMPLETED  0.142    
 STEP TIME COMPLETED       0.142    ,  TOTAL TIME COMPLETED        0.142    


  INCREMENT     7 STARTS. ATTEMPT NUMBER  1, TIME INCREMENT  7.594E-02

  NUMBER OF EQUATIONS =       78     NUMBER OF FLOATING PT. OPERATIONS =  1.44E+04

     CHECK POINT   START OF SOLVER    

     CHECK POINT  END OF SOLVER       

       ELAPSED USER TIME (SEC)      =   0.0000    
       ELAPSED SYSTEM TIME (SEC)    =   0.0000    
       ELAPSED TOTAL CPU TIME (SEC) =   0.0000    
       ELAPSED WALLCLOCK TIME (SEC) =          0
 

 ***WARNING: THE SYSTEM MATRIX HAS 1 NEGATIVE EIGENVALUES.
             EXPLANATIONS ARE SUGGESTED AFTER THE FIRST OCCURRENCE OF THIS MESSAGE.

               CONVERGENCE CHECKS FOR EQUILIBRIUM ITERATION     1


 AVERAGE FORCE                       334.       TIME AVG. FORCE        334.    
 LARGEST RESIDUAL FORCE             2.773E+03   AT NODE         13   DOF  1
   INSTANCE: PART-1-1                                                                        
 LARGEST INCREMENT OF DISP.         0.291       AT NODE          7   DOF  2
   INSTANCE: PART-1-1                                                                        
 LARGEST CORRECTION TO DISP.        1.914E-02   AT NODE          1   DOF  1
   INSTANCE: PART-1-1                                                                        
          FORCE     EQUILIBRIUM NOT ACHIEVED WITHIN TOLERANCE.

 AVERAGE MOMENT                      547.       TIME AVG. MOMENT       203.    
 LARGEST RESIDUAL MOMENT            -1.56       AT NODE         12   DOF  6
   INSTANCE: PART-1-1                                                                        
 LARGEST INCREMENT OF ROTATION      0.119       AT NODE          1   DOF  6
   INSTANCE: PART-1-1                                                                        
 LARGEST CORRECTION TO ROTATION     3.984E-04   AT NODE         10   DOF  6
   INSTANCE: PART-1-1                                                                        
          MOMENT    EQUILIBRIUM NOT ACHIEVED WITHIN TOLERANCE.

  NUMBER OF EQUATIONS =       78     NUMBER OF FLOATING PT. OPERATIONS =  1.44E+04

     CHECK POINT   START OF SOLVER    

     CHECK POINT  END OF SOLVER       

       ELAPSED USER TIME (SEC)      =   0.0000    
       ELAPSED SYSTEM TIME (SEC)    =   0.0000    
       ELAPSED TOTAL CPU TIME (SEC) =   0.0000    
       ELAPSED WALLCLOCK TIME (SEC) =          0
 

 ***WARNING: THE SYSTEM MATRIX HAS 1 NEGATIVE EIGENVALUES.
             EXPLANATIONS ARE SUGGESTED AFTER THE FIRST OCCURRENCE OF THIS MESSAGE.

               CONVERGENCE CHECKS FOR EQUILIBRIUM ITERATION     2


 AVERAGE FORCE                       1.29       TIME AVG. FORCE        1.29    
 LARGEST RESIDUAL FORCE              3.48       AT NODE          2   DOF  1
   INSTANCE: PART-1-1                                                                        
 LARGEST INCREMENT OF DISP.         0.293       AT NODE          7   DOF  2
   INSTANCE: PART-1-1                                                                        
 LARGEST CORRECTION TO DISP.        1.482E-03   AT NODE          7   DOF  2
   INSTANCE: PART-1-1                                                                        
          FORCE     EQUILIBRIUM NOT ACHIEVED WITHIN TOLERANCE.

 AVERAGE MOMENT                      547.       TIME AVG. MOMENT       203.    
 LARGEST RESIDUAL MOMENT            1.568E-02   AT NODE         12   DOF  6
   INSTANCE: PART-1-1                                                                        
 LARGEST INCREMENT OF ROTATION      0.119       AT NODE          1   DOF  6
   INSTANCE: PART-1-1                                                                        
 LARGEST CORRECTION TO ROTATION    -4.713E-04   AT NODE         10   DOF  6
   INSTANCE: PART-1-1                                                                        
          THE MOMENT    EQUILIBRIUM EQUATIONS HAVE CONVERGED

  NUMBER OF EQUATIONS =       78     NUMBER OF FLOATING PT. OPERATIONS =  1.44E+04

     CHECK POINT   START OF SOLVER    

     CHECK POINT  END OF SOLVER       

       ELAPSED USER TIME (SEC)      =  0.10000    
       ELAPSED SYSTEM TIME (SEC)    =   0.0000    
       ELAPSED TOTAL CPU TIME (SEC) =  0.10000    
       ELAPSED WALLCLOCK TIME (SEC) =          0
 

 ***WARNING: THE SYSTEM MATRIX HAS 1 NEGATIVE EIGENVALUES.
             EXPLANATIONS ARE SUGGESTED AFTER THE FIRST OCCURRENCE OF THIS MESSAGE.

               CONVERGENCE CHECKS FOR EQUILIBRIUM ITERATION     3


 AVERAGE FORCE                      3.606E-02   TIME AVG. FORCE       3.606E-02
 LARGEST RESIDUAL FORCE             0.132       AT NODE          2   DOF  1
   INSTANCE: PART-1-1                                                                        
 LARGEST INCREMENT OF DISP.         0.292       AT NODE          7   DOF  2
   INSTANCE: PART-1-1                                                                        
 LARGEST CORRECTION TO DISP.       -2.439E-04   AT NODE          7   DOF  2
   INSTANCE: PART-1-1                                                                        
          FORCE     EQUILIBRIUM NOT ACHIEVED WITHIN TOLERANCE.

 AVERAGE MOMENT                      547.       TIME AVG. MOMENT       203.    
 LARGEST RESIDUAL MOMENT            3.188E-05   AT NODE         12   DOF  6
   INSTANCE: PART-1-1                                                                        
 LARGEST INCREMENT OF ROTATION      0.119       AT NODE          1   DOF  6
   INSTANCE: PART-1-1                                                                        
 LARGEST CORRECTION TO ROTATION    -8.296E-05   AT NODE          3   DOF  6
   INSTANCE: PART-1-1                                                                        
          THE MOMENT    EQUILIBRIUM EQUATIONS HAVE CONVERGED

  NUMBER OF EQUATIONS =       78     NUMBER OF FLOATING PT. OPERATIONS =  1.44E+04

     CHECK POINT   START OF SOLVER    

     CHECK POINT  END OF SOLVER       

       ELAPSED USER TIME (SEC)      =   0.0000    
       ELAPSED SYSTEM TIME (SEC)    =   0.0000    
       ELAPSED TOTAL CPU TIME (SEC) =   0.0000    
       ELAPSED WALLCLOCK TIME (SEC) =          0
 

 ***WARNING: THE SYSTEM MATRIX HAS 1 NEGATIVE EIGENVALUES.
             EXPLANATIONS ARE SUGGESTED AFTER THE FIRST OCCURRENCE OF THIS MESSAGE.

               CONVERGENCE CHECKS FOR EQUILIBRIUM ITERATION     4


 AVERAGE FORCE                      7.991E-08   TIME AVG. FORCE        175.    
                                                (FROM MOMENT    FIELD)
 LARGEST RESIDUAL FORCE            -1.982E-07   AT NODE         11   DOF  1
   INSTANCE: PART-1-1                                                                        
 LARGEST INCREMENT OF DISP.         0.292       AT NODE          7   DOF  2
   INSTANCE: PART-1-1                                                                        
 LARGEST CORRECTION TO DISP.       -3.537E-07   AT NODE          7   DOF  2
   INSTANCE: PART-1-1                                                                        
          THERE IS ZERO FORCE     EVERYWHERE

 AVERAGE MOMENT                      547.       TIME AVG. MOMENT       203.    
 LARGEST RESIDUAL MOMENT           -1.236E-06   AT NODE          2   DOF  6
   INSTANCE: PART-1-1                                                                        
 LARGEST INCREMENT OF ROTATION      0.119       AT NODE          1   DOF  6
   INSTANCE: PART-1-1                                                                        
 LARGEST CORRECTION TO ROTATION    -1.169E-07   AT NODE          4   DOF  6
   INSTANCE: PART-1-1                                                                        
          THE MOMENT    EQUILIBRIUM EQUATIONS HAVE CONVERGED
          TIME INCREMENT MAY NOW INCREASE TO    0.100    

 ITERATION SUMMARY FOR THE INCREMENT:   4 TOTAL ITERATIONS, OF WHICH
   0 ARE SEVERE DISCONTINUITY ITERATIONS AND  4 ARE EQUILIBRIUM ITERATIONS.

 TIME INCREMENT COMPLETED  7.594E-02,  FRACTION OF STEP COMPLETED  0.218    
 STEP TIME COMPLETED       0.218    ,  TOTAL TIME COMPLETED        0.218    


  INCREMENT     8 STARTS. ATTEMPT NUMBER  1, TIME INCREMENT  0.100    

  NUMBER OF EQUATIONS =       78     NUMBER OF FLOATING PT. OPERATIONS =  1.44E+04

     CHECK POINT   START OF SOLVER    

     CHECK POINT  END OF SOLVER       

       ELAPSED USER TIME (SEC)      =   0.0000    
       ELAPSED SYSTEM TIME (SEC)    =   0.0000    
       ELAPSED TOTAL CPU TIME (SEC) =   0.0000    
       ELAPSED WALLCLOCK TIME (SEC) =          0
 

 ***WARNING: THE SYSTEM MATRIX HAS 1 NEGATIVE EIGENVALUES.
             EXPLANATIONS ARE SUGGESTED AFTER THE FIRST OCCURRENCE OF THIS MESSAGE.

               CONVERGENCE CHECKS FOR EQUILIBRIUM ITERATION     1


 AVERAGE FORCE                      1.170E+03   TIME AVG. FORCE       1.170E+03
 LARGEST RESIDUAL FORCE            -8.597E+03   AT NODE          1   DOF  1
   INSTANCE: PART-1-1                                                                        
 LARGEST INCREMENT OF DISP.         0.373       AT NODE          7   DOF  2
   INSTANCE: PART-1-1                                                                        
 LARGEST CORRECTION TO DISP.        3.415E-02   AT NODE          1   DOF  1
   INSTANCE: PART-1-1                                                                        
          FORCE     EQUILIBRIUM NOT ACHIEVED WITHIN TOLERANCE.

 AVERAGE MOMENT                      799.       TIME AVG. MOMENT       278.    
 LARGEST RESIDUAL MOMENT             4.04       AT NODE          2   DOF  6
   INSTANCE: PART-1-1                                                                        
 LARGEST INCREMENT OF ROTATION      0.157       AT NODE          1   DOF  6
   INSTANCE: PART-1-1                                                                        
 LARGEST CORRECTION TO ROTATION     8.634E-04   AT NODE         10   DOF  6
   INSTANCE: PART-1-1                                                                        
          MOMENT    EQUILIBRIUM NOT ACHIEVED WITHIN TOLERANCE.

  NUMBER OF EQUATIONS =       78     NUMBER OF FLOATING PT. OPERATIONS =  1.44E+04

     CHECK POINT   START OF SOLVER    

     CHECK POINT  END OF SOLVER       

       ELAPSED USER TIME (SEC)      =   0.0000    
       ELAPSED SYSTEM TIME (SEC)    =   0.0000    
       ELAPSED TOTAL CPU TIME (SEC) =   0.0000    
       ELAPSED WALLCLOCK TIME (SEC) =          0
 

 ***WARNING: THE SYSTEM MATRIX HAS 1 NEGATIVE EIGENVALUES.
             EXPLANATIONS ARE SUGGESTED AFTER THE FIRST OCCURRENCE OF THIS MESSAGE.

               CONVERGENCE CHECKS FOR EQUILIBRIUM ITERATION     2


 AVERAGE FORCE                       21.9       TIME AVG. FORCE        21.9    
 LARGEST RESIDUAL FORCE              60.4       AT NODE          2   DOF  1
   INSTANCE: PART-1-1                                                                        
 LARGEST INCREMENT OF DISP.         0.379       AT NODE          7   DOF  2
   INSTANCE: PART-1-1                                                                        
 LARGEST CORRECTION TO DISP.        5.836E-03   AT NODE          7   DOF  2
   INSTANCE: PART-1-1                                                                        
          FORCE     EQUILIBRIUM NOT ACHIEVED WITHIN TOLERANCE.

 AVERAGE MOMENT                      799.       TIME AVG. MOMENT       278.    
 LARGEST RESIDUAL MOMENT            8.498E-02   AT NODE         12   DOF  6
   INSTANCE: PART-1-1                                                                        
 LARGEST INCREMENT OF ROTATION      0.157       AT NODE          1   DOF  6
   INSTANCE: PART-1-1                                                                        
 LARGEST CORRECTION TO ROTATION    -1.877E-03   AT NODE         11   DOF  6
   INSTANCE: PART-1-1                                                                        
 ESTIMATE OF ROTATION CORRECTION   -3.947E-05
 MOMENT    EQUILIB. ACCEPTED BASED ON SMALL RESIDUAL AND ESTIMATED CORRECTION

  NUMBER OF EQUATIONS =       78     NUMBER OF FLOATING PT. OPERATIONS =  1.44E+04

     CHECK POINT   START OF SOLVER    

     CHECK POINT  END OF SOLVER       

       ELAPSED USER TIME (SEC)      =   0.0000    
       ELAPSED SYSTEM TIME (SEC)    =   0.0000    
       ELAPSED TOTAL CPU TIME (SEC) =   0.0000    
       ELAPSED WALLCLOCK TIME (SEC) =          0
 

 ***WARNING: THE SYSTEM MATRIX HAS 1 NEGATIVE EIGENVALUES.
             EXPLANATIONS ARE SUGGESTED AFTER THE FIRST OCCURRENCE OF THIS MESSAGE.

               CONVERGENCE CHECKS FOR EQUILIBRIUM ITERATION     3


 AVERAGE FORCE                       6.85       TIME AVG. FORCE        6.85    
 LARGEST RESIDUAL FORCE             -23.2       AT NODE         12   DOF  1
   INSTANCE: PART-1-1                                                                        
 LARGEST INCREMENT OF DISP.         0.376       AT NODE          7   DOF  2
   INSTANCE: PART-1-1                                                                        
 LARGEST CORRECTION TO DISP.       -3.189E-03   AT NODE          7   DOF  2
   INSTANCE: PART-1-1                                                                        
          FORCE     EQUILIBRIUM NOT ACHIEVED WITHIN TOLERANCE.

 AVERAGE MOMENT                      799.       TIME AVG. MOMENT       278.    
 LARGEST RESIDUAL MOMENT           -6.005E-04   AT NODE          2   DOF  6
   INSTANCE: PART-1-1                                                                        
 LARGEST INCREMENT OF ROTATION      0.157       AT NODE          1   DOF  6
   INSTANCE: PART-1-1                                                                        
 LARGEST CORRECTION TO ROTATION     1.117E-03   AT NODE         11   DOF  6
   INSTANCE: PART-1-1                                                                        
          THE MOMENT    EQUILIBRIUM EQUATIONS HAVE CONVERGED

  NUMBER OF EQUATIONS =       78     NUMBER OF FLOATING PT. OPERATIONS =  1.44E+04

     CHECK POINT   START OF SOLVER    

     CHECK POINT  END OF SOLVER       

       ELAPSED USER TIME (SEC)      =   0.0000    
       ELAPSED SYSTEM TIME (SEC)    =   0.0000    
       ELAPSED TOTAL CPU TIME (SEC) =   0.0000    
       ELAPSED WALLCLOCK TIME (SEC) =          0
 

 ***WARNING: THE SYSTEM MATRIX HAS 1 NEGATIVE EIGENVALUES.
             EXPLANATIONS ARE SUGGESTED AFTER THE FIRST OCCURRENCE OF THIS MESSAGE.

               CONVERGENCE CHECKS FOR EQUILIBRIUM ITERATION     4


 AVERAGE FORCE                      3.775E-03   TIME AVG. FORCE       3.775E-03
 LARGEST RESIDUAL FORCE             8.626E-03   AT NODE          9   DOF  1
   INSTANCE: PART-1-1                                                                        
 LARGEST INCREMENT OF DISP.         0.376       AT NODE          7   DOF  2
   INSTANCE: PART-1-1                                                                        
 LARGEST CORRECTION TO DISP.       -7.568E-05   AT NODE          7   DOF  2
   INSTANCE: PART-1-1                                                                        
          FORCE     EQUILIBRIUM NOT ACHIEVED WITHIN TOLERANCE.

 AVERAGE MOMENT                      799.       TIME AVG. MOMENT       278.    
 LARGEST RESIDUAL MOMENT            3.301E-04   AT NODE         12   DOF  6
   INSTANCE: PART-1-1                                                                        
 LARGEST INCREMENT OF ROTATION      0.157       AT NODE          1   DOF  6
   INSTANCE: PART-1-1                                                                        
 LARGEST CORRECTION TO ROTATION    -2.550E-05   AT NODE          4   DOF  6
   INSTANCE: PART-1-1                                                                        
          THE MOMENT    EQUILIBRIUM EQUATIONS HAVE CONVERGED

  NUMBER OF EQUATIONS =       78     NUMBER OF FLOATING PT. OPERATIONS =  1.44E+04

     CHECK POINT   START OF SOLVER    

     CHECK POINT  END OF SOLVER       

       ELAPSED USER TIME (SEC)      =   0.0000    
       ELAPSED SYSTEM TIME (SEC)    =   0.0000    
       ELAPSED TOTAL CPU TIME (SEC) =   0.0000    
       ELAPSED WALLCLOCK TIME (SEC) =          0
 

 ***WARNING: THE SYSTEM MATRIX HAS 1 NEGATIVE EIGENVALUES.
             EXPLANATIONS ARE SUGGESTED AFTER THE FIRST OCCURRENCE OF THIS MESSAGE.

               CONVERGENCE CHECKS FOR EQUILIBRIUM ITERATION     5


 AVERAGE FORCE                      1.640E-07   TIME AVG. FORCE        244.    
                                                (FROM MOMENT    FIELD)
 LARGEST RESIDUAL FORCE            -5.234E-07   AT NODE         12   DOF  1
   INSTANCE: PART-1-1                                                                        
 LARGEST INCREMENT OF DISP.         0.376       AT NODE          7   DOF  2
   INSTANCE: PART-1-1                                                                        
 LARGEST CORRECTION TO DISP.       -4.945E-07   AT NODE          7   DOF  2
   INSTANCE: PART-1-1                                                                        
          THERE IS ZERO FORCE     EVERYWHERE

 AVERAGE MOMENT                      799.       TIME AVG. MOMENT       278.    
 LARGEST RESIDUAL MOMENT           -1.254E-07   AT NODE          2   DOF  6
   INSTANCE: PART-1-1                                                                        
 LARGEST INCREMENT OF ROTATION      0.157       AT NODE          1   DOF  6
   INSTANCE: PART-1-1                                                                        
 LARGEST CORRECTION TO ROTATION     1.708E-07   AT NODE         11   DOF  6
   INSTANCE: PART-1-1                                                                        
          THE MOMENT    EQUILIBRIUM EQUATIONS HAVE CONVERGED

 ITERATION SUMMARY FOR THE INCREMENT:   5 TOTAL ITERATIONS, OF WHICH
   0 ARE SEVERE DISCONTINUITY ITERATIONS AND  5 ARE EQUILIBRIUM ITERATIONS.

 TIME INCREMENT COMPLETED  0.100    ,  FRACTION OF STEP COMPLETED  0.318    
 STEP TIME COMPLETED       0.318    ,  TOTAL TIME COMPLETED        0.318    


  INCREMENT     9 STARTS. ATTEMPT NUMBER  1, TIME INCREMENT  0.100    

  NUMBER OF EQUATIONS =       78     NUMBER OF FLOATING PT. OPERATIONS =  1.44E+04

     CHECK POINT   START OF SOLVER    

     CHECK POINT  END OF SOLVER       

       ELAPSED USER TIME (SEC)      =   0.0000    
       ELAPSED SYSTEM TIME (SEC)    =   0.0000    
       ELAPSED TOTAL CPU TIME (SEC) =   0.0000    
       ELAPSED WALLCLOCK TIME (SEC) =          0
 

 ***WARNING: THE SYSTEM MATRIX HAS 1 NEGATIVE EIGENVALUES.
             EXPLANATIONS ARE SUGGESTED AFTER THE FIRST OCCURRENCE OF THIS MESSAGE.

               CONVERGENCE CHECKS FOR EQUILIBRIUM ITERATION     1


 AVERAGE FORCE                      1.564E+03   TIME AVG. FORCE       1.564E+03
 LARGEST RESIDUAL FORCE            -1.015E+04   AT NODE          1   DOF  1
   INSTANCE: PART-1-1                                                                        
 LARGEST INCREMENT OF DISP.         0.357       AT NODE          7   DOF  2
   INSTANCE: PART-1-1                                                                        
 LARGEST CORRECTION TO DISP.       -3.682E-02   AT NODE         13   DOF  1
   INSTANCE: PART-1-1                                                                        
          FORCE     EQUILIBRIUM NOT ACHIEVED WITHIN TOLERANCE.

 AVERAGE MOMENT                     1.050E+03   TIME AVG. MOMENT       364.    
 LARGEST RESIDUAL MOMENT             5.78       AT NODE          2   DOF  6
   INSTANCE: PART-1-1                                                                        
 LARGEST INCREMENT OF ROTATION      0.157       AT NODE          1   DOF  6
   INSTANCE: PART-1-1                                                                        
 LARGEST CORRECTION TO ROTATION     1.330E-03   AT NODE         10   DOF  6
   INSTANCE: PART-1-1                                                                        
          MOMENT    EQUILIBRIUM NOT ACHIEVED WITHIN TOLERANCE.

  NUMBER OF EQUATIONS =       78     NUMBER OF FLOATING PT. OPERATIONS =  1.44E+04

     CHECK POINT   START OF SOLVER    

     CHECK POINT  END OF SOLVER       

       ELAPSED USER TIME (SEC)      =   0.0000    
       ELAPSED SYSTEM TIME (SEC)    =   0.0000    
       ELAPSED TOTAL CPU TIME (SEC) =   0.0000    
       ELAPSED WALLCLOCK TIME (SEC) =          0
 

 ***WARNING: THE SYSTEM MATRIX HAS 1 NEGATIVE EIGENVALUES.
             EXPLANATIONS ARE SUGGESTED AFTER THE FIRST OCCURRENCE OF THIS MESSAGE.

               CONVERGENCE CHECKS FOR EQUILIBRIUM ITERATION     2


 AVERAGE FORCE                       208.       TIME AVG. FORCE        208.    
 LARGEST RESIDUAL FORCE              592.       AT NODE          2   DOF  1
   INSTANCE: PART-1-1                                                                        
 LARGEST INCREMENT OF DISP.         0.374       AT NODE          7   DOF  2
   INSTANCE: PART-1-1                                                                        
 LARGEST CORRECTION TO DISP.        1.691E-02   AT NODE          7   DOF  2
   INSTANCE: PART-1-1                                                                        
          FORCE     EQUILIBRIUM NOT ACHIEVED WITHIN TOLERANCE.

 AVERAGE MOMENT                     1.050E+03   TIME AVG. MOMENT       364.    
 LARGEST RESIDUAL MOMENT           -0.180       AT NODE          2   DOF  6
   INSTANCE: PART-1-1                                                                        
 LARGEST INCREMENT OF ROTATION      0.157       AT NODE          1   DOF  6
   INSTANCE: PART-1-1                                                                        
 LARGEST CORRECTION TO ROTATION     5.872E-03   AT NODE          3   DOF  6
   INSTANCE: PART-1-1                                                                        
 ESTIMATE OF ROTATION CORRECTION   -1.828E-04
 MOMENT    EQUILIB. ACCEPTED BASED ON SMALL RESIDUAL AND ESTIMATED CORRECTION

  NUMBER OF EQUATIONS =       78     NUMBER OF FLOATING PT. OPERATIONS =  1.44E+04

     CHECK POINT   START OF SOLVER    

     CHECK POINT  END OF SOLVER       

       ELAPSED USER TIME (SEC)      =   0.0000    
       ELAPSED SYSTEM TIME (SEC)    =   0.0000    
       ELAPSED TOTAL CPU TIME (SEC) =   0.0000    
       ELAPSED WALLCLOCK TIME (SEC) =          0

               CONVERGENCE CHECKS FOR EQUILIBRIUM ITERATION     3


 AVERAGE FORCE                       87.3       TIME AVG. FORCE        87.3    
 LARGEST RESIDUAL FORCE             -284.       AT NODE         12   DOF  1
   INSTANCE: PART-1-1                                                                        
 LARGEST INCREMENT OF DISP.         0.363       AT NODE          7   DOF  2
   INSTANCE: PART-1-1                                                                        
 LARGEST CORRECTION TO DISP.       -1.067E-02   AT NODE          7   DOF  2
   INSTANCE: PART-1-1                                                                        
          FORCE     EQUILIBRIUM NOT ACHIEVED WITHIN TOLERANCE.

 AVERAGE MOMENT                     1.050E+03   TIME AVG. MOMENT       364.    
 LARGEST RESIDUAL MOMENT            8.743E-03   AT NODE         11   DOF  6
   INSTANCE: PART-1-1                                                                        
 LARGEST INCREMENT OF ROTATION      0.157       AT NODE          1   DOF  6
   INSTANCE: PART-1-1                                                                        
 LARGEST CORRECTION TO ROTATION    -3.949E-03   AT NODE          3   DOF  6
   INSTANCE: PART-1-1                                                                        
 ESTIMATE OF ROTATION CORRECTION    1.919E-04
 MOMENT    EQUILIB. ACCEPTED BASED ON SMALL RESIDUAL AND ESTIMATED CORRECTION

  NUMBER OF EQUATIONS =       78     NUMBER OF FLOATING PT. OPERATIONS =  1.44E+04

     CHECK POINT   START OF SOLVER    

     CHECK POINT  END OF SOLVER       

       ELAPSED USER TIME (SEC)      =   0.0000    
       ELAPSED SYSTEM TIME (SEC)    =   0.0000    
       ELAPSED TOTAL CPU TIME (SEC) =   0.0000    
       ELAPSED WALLCLOCK TIME (SEC) =          0

               CONVERGENCE CHECKS FOR EQUILIBRIUM ITERATION     4


 AVERAGE FORCE                       3.35       TIME AVG. FORCE        3.35    
 LARGEST RESIDUAL FORCE              7.67       AT NODE          2   DOF  1
   INSTANCE: PART-1-1                                                                        
 LARGEST INCREMENT OF DISP.         0.361       AT NODE          7   DOF  2
   INSTANCE: PART-1-1                                                                        
 LARGEST CORRECTION TO DISP.       -2.147E-03   AT NODE          7   DOF  2
   INSTANCE: PART-1-1                                                                        
          FORCE     EQUILIBRIUM NOT ACHIEVED WITHIN TOLERANCE.

 AVERAGE MOMENT                     1.050E+03   TIME AVG. MOMENT       364.    
 LARGEST RESIDUAL MOMENT           -5.736E-03   AT NODE          2   DOF  6
   INSTANCE: PART-1-1                                                                        
 LARGEST INCREMENT OF ROTATION      0.157       AT NODE          1   DOF  6
   INSTANCE: PART-1-1                                                                        
 LARGEST CORRECTION TO ROTATION    -7.402E-04   AT NODE          4   DOF  6
   INSTANCE: PART-1-1                                                                        
          THE MOMENT    EQUILIBRIUM EQUATIONS HAVE CONVERGED

  NUMBER OF EQUATIONS =       78     NUMBER OF FLOATING PT. OPERATIONS =  1.44E+04

     CHECK POINT   START OF SOLVER    

     CHECK POINT  END OF SOLVER       

       ELAPSED USER TIME (SEC)      =   0.0000    
       ELAPSED SYSTEM TIME (SEC)    =   0.0000    
       ELAPSED TOTAL CPU TIME (SEC) =   0.0000    
       ELAPSED WALLCLOCK TIME (SEC) =          0
 

 ***WARNING: THE SYSTEM MATRIX HAS 1 NEGATIVE EIGENVALUES.
             EXPLANATIONS ARE SUGGESTED AFTER THE FIRST OCCURRENCE OF THIS MESSAGE.

               CONVERGENCE CHECKS FOR EQUILIBRIUM ITERATION     5


 AVERAGE FORCE                      2.594E-02   TIME AVG. FORCE       2.594E-02
 LARGEST RESIDUAL FORCE             6.032E-02   AT NODE          2   DOF  1
   INSTANCE: PART-1-1                                                                        
 LARGEST INCREMENT OF DISP.         0.361       AT NODE          7   DOF  2
   INSTANCE: PART-1-1                                                                        
 LARGEST CORRECTION TO DISP.       -1.889E-04   AT NODE          7   DOF  2
   INSTANCE: PART-1-1                                                                        
          FORCE     EQUILIBRIUM NOT ACHIEVED WITHIN TOLERANCE.

 AVERAGE MOMENT                     1.050E+03   TIME AVG. MOMENT       364.    
 LARGEST RESIDUAL MOMENT           -1.522E-04   AT NODE          2   DOF  6
   INSTANCE: PART-1-1                                                                        
 LARGEST INCREMENT OF ROTATION      0.157       AT NODE          1   DOF  6
   INSTANCE: PART-1-1                                                                        
 LARGEST CORRECTION TO ROTATION     6.525E-05   AT NODE         10   DOF  6
   INSTANCE: PART-1-1                                                                        
          THE MOMENT    EQUILIBRIUM EQUATIONS HAVE CONVERGED

  NUMBER OF EQUATIONS =       78     NUMBER OF FLOATING PT. OPERATIONS =  1.44E+04

     CHECK POINT   START OF SOLVER    

     CHECK POINT  END OF SOLVER       

       ELAPSED USER TIME (SEC)      =   0.0000    
       ELAPSED SYSTEM TIME (SEC)    =   0.0000    
       ELAPSED TOTAL CPU TIME (SEC) =   0.0000    
       ELAPSED WALLCLOCK TIME (SEC) =          0
 

 ***WARNING: THE SYSTEM MATRIX HAS 1 NEGATIVE EIGENVALUES.
             EXPLANATIONS ARE SUGGESTED AFTER THE FIRST OCCURRENCE OF THIS MESSAGE.

               CONVERGENCE CHECKS FOR EQUILIBRIUM ITERATION     6


 AVERAGE FORCE                      3.386E-07   TIME AVG. FORCE        333.    
                                                (FROM MOMENT    FIELD)
 LARGEST RESIDUAL FORCE             8.076E-07   AT NODE          2   DOF  1
   INSTANCE: PART-1-1                                                                        
 LARGEST INCREMENT OF DISP.         0.361       AT NODE          7   DOF  2
   INSTANCE: PART-1-1                                                                        
 LARGEST CORRECTION TO DISP.       -6.829E-07   AT NODE          7   DOF  2
   INSTANCE: PART-1-1                                                                        
          THERE IS ZERO FORCE     EVERYWHERE

 AVERAGE MOMENT                     1.050E+03   TIME AVG. MOMENT       364.    
 LARGEST RESIDUAL MOMENT            1.191E-06   AT NODE         12   DOF  6
   INSTANCE: PART-1-1                                                                        
 LARGEST INCREMENT OF ROTATION      0.157       AT NODE          1   DOF  6
   INSTANCE: PART-1-1                                                                        
 LARGEST CORRECTION TO ROTATION    -2.385E-07   AT NODE          4   DOF  6
   INSTANCE: PART-1-1                                                                        
          THE MOMENT    EQUILIBRIUM EQUATIONS HAVE CONVERGED

 ITERATION SUMMARY FOR THE INCREMENT:   6 TOTAL ITERATIONS, OF WHICH
   0 ARE SEVERE DISCONTINUITY ITERATIONS AND  6 ARE EQUILIBRIUM ITERATIONS.

 TIME INCREMENT COMPLETED  0.100    ,  FRACTION OF STEP COMPLETED  0.418    
 STEP TIME COMPLETED       0.418    ,  TOTAL TIME COMPLETED        0.418    


  INCREMENT    10 STARTS. ATTEMPT NUMBER  1, TIME INCREMENT  0.100    

  NUMBER OF EQUATIONS =       78     NUMBER OF FLOATING PT. OPERATIONS =  1.44E+04

     CHECK POINT   START OF SOLVER    

     CHECK POINT  END OF SOLVER       

       ELAPSED USER TIME (SEC)      =   0.0000    
       ELAPSED SYSTEM TIME (SEC)    =   0.0000    
       ELAPSED TOTAL CPU TIME (SEC) =   0.0000    
       ELAPSED WALLCLOCK TIME (SEC) =          0
 

 ***WARNING: THE SYSTEM MATRIX HAS 1 NEGATIVE EIGENVALUES.
             EXPLANATIONS ARE SUGGESTED AFTER THE FIRST OCCURRENCE OF THIS MESSAGE.

               CONVERGENCE CHECKS FOR EQUILIBRIUM ITERATION     1


 AVERAGE FORCE                      1.596E+03   TIME AVG. FORCE       1.596E+03
 LARGEST RESIDUAL FORCE             9.063E+03   AT NODE         13   DOF  1
   INSTANCE: PART-1-1                                                                        
 LARGEST INCREMENT OF DISP.         0.337       AT NODE          7   DOF  2
   INSTANCE: PART-1-1                                                                        
 LARGEST CORRECTION TO DISP.        3.378E-02   AT NODE          1   DOF  1
   INSTANCE: PART-1-1                                                                        
          FORCE     EQUILIBRIUM NOT ACHIEVED WITHIN TOLERANCE.

 AVERAGE MOMENT                     1.301E+03   TIME AVG. MOMENT       457.    
 LARGEST RESIDUAL MOMENT            -6.80       AT NODE         12   DOF  6
   INSTANCE: PART-1-1                                                                        
 LARGEST INCREMENT OF ROTATION      0.157       AT NODE          1   DOF  6
   INSTANCE: PART-1-1                                                                        
 LARGEST CORRECTION TO ROTATION     1.806E-03   AT NODE         10   DOF  6
   INSTANCE: PART-1-1                                                                        
          MOMENT    EQUILIBRIUM NOT ACHIEVED WITHIN TOLERANCE.

  NUMBER OF EQUATIONS =       78     NUMBER OF FLOATING PT. OPERATIONS =  1.44E+04

     CHECK POINT   START OF SOLVER    

     CHECK POINT  END OF SOLVER       

       ELAPSED USER TIME (SEC)      =   0.0000    
       ELAPSED SYSTEM TIME (SEC)    =   0.0000    
       ELAPSED TOTAL CPU TIME (SEC) =   0.0000    
       ELAPSED WALLCLOCK TIME (SEC) =          0
 

 ***WARNING: THE SYSTEM MATRIX HAS 2 NEGATIVE EIGENVALUES.
             EXPLANATIONS ARE SUGGESTED AFTER THE FIRST OCCURRENCE OF THIS MESSAGE.

               CONVERGENCE CHECKS FOR EQUILIBRIUM ITERATION     2


 AVERAGE FORCE                       429.       TIME AVG. FORCE        429.    
 LARGEST RESIDUAL FORCE             1.135E+03   AT NODE          2   DOF  1
   INSTANCE: PART-1-1                                                                        
 LARGEST INCREMENT OF DISP.         0.360       AT NODE          7   DOF  2
   INSTANCE: PART-1-1                                                                        
 LARGEST CORRECTION TO DISP.        2.292E-02   AT NODE          7   DOF  2
   INSTANCE: PART-1-1                                                                        
          FORCE     EQUILIBRIUM NOT ACHIEVED WITHIN TOLERANCE.

 AVERAGE MOMENT                     1.301E+03   TIME AVG. MOMENT       457.    
 LARGEST RESIDUAL MOMENT           -0.230       AT NODE          2   DOF  6
   INSTANCE: PART-1-1                                                                        
 LARGEST INCREMENT OF ROTATION      0.157       AT NODE          1   DOF  6
   INSTANCE: PART-1-1                                                                        
 LARGEST CORRECTION TO ROTATION     8.366E-03   AT NODE          3   DOF  6
   INSTANCE: PART-1-1                                                                        
 ESTIMATE OF ROTATION CORRECTION    2.831E-04
 MOMENT    EQUILIB. ACCEPTED BASED ON SMALL RESIDUAL AND ESTIMATED CORRECTION

  NUMBER OF EQUATIONS =       78     NUMBER OF FLOATING PT. OPERATIONS =  1.44E+04

     CHECK POINT   START OF SOLVER    

     CHECK POINT  END OF SOLVER       

       ELAPSED USER TIME (SEC)      =   0.0000    
       ELAPSED SYSTEM TIME (SEC)    =   0.0000    
       ELAPSED TOTAL CPU TIME (SEC) =   0.0000    
       ELAPSED WALLCLOCK TIME (SEC) =          1

               CONVERGENCE CHECKS FOR EQUILIBRIUM ITERATION     3


 AVERAGE FORCE                       134.       TIME AVG. FORCE        134.    
 LARGEST RESIDUAL FORCE             -412.       AT NODE         12   DOF  1
   INSTANCE: PART-1-1                                                                        
 LARGEST INCREMENT OF DISP.         0.347       AT NODE          7   DOF  2
   INSTANCE: PART-1-1                                                                        
 LARGEST CORRECTION TO DISP.       -1.229E-02   AT NODE          7   DOF  2
   INSTANCE: PART-1-1                                                                        
          FORCE     EQUILIBRIUM NOT ACHIEVED WITHIN TOLERANCE.

 AVERAGE MOMENT                     1.301E+03   TIME AVG. MOMENT       457.    
 LARGEST RESIDUAL MOMENT            2.601E-02   AT NODE         12   DOF  6
   INSTANCE: PART-1-1                                                                        
 LARGEST INCREMENT OF ROTATION      0.157       AT NODE          1   DOF  6
   INSTANCE: PART-1-1                                                                        
 LARGEST CORRECTION TO ROTATION     4.855E-03   AT NODE         11   DOF  6
   INSTANCE: PART-1-1                                                                        
 ESTIMATE OF ROTATION CORRECTION   -5.488E-04
 MOMENT    EQUILIB. ACCEPTED BASED ON SMALL RESIDUAL AND ESTIMATED CORRECTION

  NUMBER OF EQUATIONS =       78     NUMBER OF FLOATING PT. OPERATIONS =  1.44E+04

     CHECK POINT   START OF SOLVER    

     CHECK POINT  END OF SOLVER       

       ELAPSED USER TIME (SEC)      =   0.0000    
       ELAPSED SYSTEM TIME (SEC)    =   0.0000    
       ELAPSED TOTAL CPU TIME (SEC) =   0.0000    
       ELAPSED WALLCLOCK TIME (SEC) =          0

               CONVERGENCE CHECKS FOR EQUILIBRIUM ITERATION     4


 AVERAGE FORCE                       18.9       TIME AVG. FORCE        18.9    
 LARGEST RESIDUAL FORCE              40.3       AT NODE          2   DOF  1
   INSTANCE: PART-1-1                                                                        
 LARGEST INCREMENT OF DISP.         0.342       AT NODE          7   DOF  2
   INSTANCE: PART-1-1                                                                        
 LARGEST CORRECTION TO DISP.       -4.823E-03   AT NODE          7   DOF  2
   INSTANCE: PART-1-1                                                                        
          FORCE     EQUILIBRIUM NOT ACHIEVED WITHIN TOLERANCE.

 AVERAGE MOMENT                     1.301E+03   TIME AVG. MOMENT       457.    
 LARGEST RESIDUAL MOMENT           -1.076E-02   AT NODE          2   DOF  6
   INSTANCE: PART-1-1                                                                        
 LARGEST INCREMENT OF ROTATION      0.157       AT NODE          1   DOF  6
   INSTANCE: PART-1-1                                                                        
 LARGEST CORRECTION TO ROTATION     1.725E-03   AT NODE         10   DOF  6
   INSTANCE: PART-1-1                                                                        
 ESTIMATE OF ROTATION CORRECTION   -7.135E-04
 MOMENT    EQUILIB. ACCEPTED BASED ON SMALL RESIDUAL AND ESTIMATED CORRECTION

  NUMBER OF EQUATIONS =       78     NUMBER OF FLOATING PT. OPERATIONS =  1.44E+04

     CHECK POINT   START OF SOLVER    

     CHECK POINT  END OF SOLVER       

       ELAPSED USER TIME (SEC)      =   0.0000    
       ELAPSED SYSTEM TIME (SEC)    =   0.0000    
       ELAPSED TOTAL CPU TIME (SEC) =   0.0000    
       ELAPSED WALLCLOCK TIME (SEC) =          0
 

 ***WARNING: THE SYSTEM MATRIX HAS 1 NEGATIVE EIGENVALUES.
             EXPLANATIONS ARE SUGGESTED AFTER THE FIRST OCCURRENCE OF THIS MESSAGE.

               CONVERGENCE CHECKS FOR EQUILIBRIUM ITERATION     5


 AVERAGE FORCE                      0.305       TIME AVG. FORCE       0.305    
 LARGEST RESIDUAL FORCE             0.658       AT NODE          2   DOF  1
   INSTANCE: PART-1-1                                                                        
 LARGEST INCREMENT OF DISP.         0.342       AT NODE          7   DOF  2
   INSTANCE: PART-1-1                                                                        
 LARGEST CORRECTION TO DISP.       -6.120E-04   AT NODE          7   DOF  2
   INSTANCE: PART-1-1                                                                        
          FORCE     EQUILIBRIUM NOT ACHIEVED WITHIN TOLERANCE.

 AVERAGE MOMENT                     1.301E+03   TIME AVG. MOMENT       457.    
 LARGEST RESIDUAL MOMENT            1.058E-03   AT NODE         12   DOF  6
   INSTANCE: PART-1-1                                                                        
 LARGEST INCREMENT OF ROTATION      0.157       AT NODE          1   DOF  6
   INSTANCE: PART-1-1                                                                        
 LARGEST CORRECTION TO ROTATION    -2.188E-04   AT NODE          4   DOF  6
   INSTANCE: PART-1-1                                                                        
          THE MOMENT    EQUILIBRIUM EQUATIONS HAVE CONVERGED

  NUMBER OF EQUATIONS =       78     NUMBER OF FLOATING PT. OPERATIONS =  1.44E+04

     CHECK POINT   START OF SOLVER    

     CHECK POINT  END OF SOLVER       

       ELAPSED USER TIME (SEC)      =   0.0000    
       ELAPSED SYSTEM TIME (SEC)    =   0.0000    
       ELAPSED TOTAL CPU TIME (SEC) =   0.0000    
       ELAPSED WALLCLOCK TIME (SEC) =          0
 

 ***WARNING: THE SYSTEM MATRIX HAS 1 NEGATIVE EIGENVALUES.
             EXPLANATIONS ARE SUGGESTED AFTER THE FIRST OCCURRENCE OF THIS MESSAGE.

               CONVERGENCE CHECKS FOR EQUILIBRIUM ITERATION     6


 AVERAGE FORCE                      1.214E-04   TIME AVG. FORCE        436.    
                                                (FROM MOMENT    FIELD)
 LARGEST RESIDUAL FORCE             2.562E-04   AT NODE          9   DOF  1
   INSTANCE: PART-1-1                                                                        
 LARGEST INCREMENT OF DISP.         0.342       AT NODE          7   DOF  2
   INSTANCE: PART-1-1                                                                        
 LARGEST CORRECTION TO DISP.       -1.229E-05   AT NODE          7   DOF  2
   INSTANCE: PART-1-1                                                                        
[...]
       ELAPSED TOTAL CPU TIME (SEC) =   0.0000    
       ELAPSED WALLCLOCK TIME (SEC) =          0

               CONVERGENCE CHECKS FOR EQUILIBRIUM ITERATION     1


 AVERAGE FORCE                       425.       TIME AVG. FORCE        619.    
 LARGEST RESIDUAL FORCE              121.       AT NODE         12   DOF  2
   INSTANCE: PART-1-1                                                                        
 LARGEST INCREMENT OF DISP.        -0.110       AT NODE          7   DOF  3
   INSTANCE: PART-1-1                                                                        
 LARGEST CORRECTION TO DISP.       -7.410E-03   AT NODE          7   DOF  2
   INSTANCE: PART-1-1                                                                        
          FORCE     EQUILIBRIUM NOT ACHIEVED WITHIN TOLERANCE.

 AVERAGE MOMENT                     2.116E+03   TIME AVG. MOMENT      2.154E+03
 LARGEST RESIDUAL MOMENT            -5.99       AT NODE          8   DOF  6
   INSTANCE: PART-1-1                                                                        
 LARGEST INCREMENT OF ROTATION      5.236E-02   AT NODE          1   DOF  6
   INSTANCE: PART-1-1                                                                        
 LARGEST CORRECTION TO ROTATION    -2.267E-03   AT NODE          3   DOF  5
   INSTANCE: PART-1-1                                                                        
 ESTIMATE OF ROTATION CORRECTION   -8.159E-05
 MOMENT    EQUILIB. ACCEPTED BASED ON SMALL RESIDUAL AND ESTIMATED CORRECTION

  NUMBER OF EQUATIONS =       78     NUMBER OF FLOATING PT. OPERATIONS =  1.44E+04

     CHECK POINT   START OF SOLVER    

     CHECK POINT  END OF SOLVER       

       ELAPSED USER TIME (SEC)      =   0.0000    
       ELAPSED SYSTEM TIME (SEC)    =   0.0000    
       ELAPSED TOTAL CPU TIME (SEC) =   0.0000    
       ELAPSED WALLCLOCK TIME (SEC) =          0

               CONVERGENCE CHECKS FOR EQUILIBRIUM ITERATION     2


 AVERAGE FORCE                       406.       TIME AVG. FORCE        616.    
 LARGEST RESIDUAL FORCE             -2.09       AT NODE          9   DOF  1
   INSTANCE: PART-1-1                                                                        
 LARGEST INCREMENT OF DISP.        -0.111       AT NODE          7   DOF  3
   INSTANCE: PART-1-1                                                                        
 LARGEST CORRECTION TO DISP.       -6.943E-04   AT NODE          7   DOF  3
   INSTANCE: PART-1-1                                                                        
          THE FORCE     EQUILIBRIUM EQUATIONS HAVE CONVERGED

 AVERAGE MOMENT                     2.176E+03   TIME AVG. MOMENT      2.163E+03
 LARGEST RESIDUAL MOMENT           -0.111       AT NODE          9   DOF  4
   INSTANCE: PART-1-1                                                                        
 LARGEST INCREMENT OF ROTATION      5.236E-02   AT NODE          1   DOF  6
   INSTANCE: PART-1-1                                                                        
 LARGEST CORRECTION TO ROTATION    -3.164E-04   AT NODE          8   DOF  6
   INSTANCE: PART-1-1                                                                        
          THE MOMENT    EQUILIBRIUM EQUATIONS HAVE CONVERGED

 ITERATION SUMMARY FOR THE INCREMENT:   2 TOTAL ITERATIONS, OF WHICH
   0 ARE SEVERE DISCONTINUITY ITERATIONS AND  2 ARE EQUILIBRIUM ITERATIONS.

 TIME INCREMENT COMPLETED  0.100    ,  FRACTION OF STEP COMPLETED  0.700    
 STEP TIME COMPLETED       0.700    ,  TOTAL TIME COMPLETED         3.70    


  INCREMENT     8 STARTS. ATTEMPT NUMBER  1, TIME INCREMENT  0.100    

  NUMBER OF EQUATIONS =       78     NUMBER OF FLOATING PT. OPERATIONS =  1.44E+04

     CHECK POINT   START OF SOLVER    

     CHECK POINT  END OF SOLVER       

       ELAPSED USER TIME (SEC)      =   0.0000    
       ELAPSED SYSTEM TIME (SEC)    =   0.0000    
       ELAPSED TOTAL CPU TIME (SEC) =   0.0000    
       ELAPSED WALLCLOCK TIME (SEC) =          0

               CONVERGENCE CHECKS FOR EQUILIBRIUM ITERATION     1


 AVERAGE FORCE                       364.       TIME AVG. FORCE        585.    
 LARGEST RESIDUAL FORCE              132.       AT NODE          2   DOF  2
   INSTANCE: PART-1-1                                                                        
 LARGEST INCREMENT OF DISP.        -0.113       AT NODE          7   DOF  3
   INSTANCE: PART-1-1                                                                        
 LARGEST CORRECTION TO DISP.       -7.867E-03   AT NODE          7   DOF  2
   INSTANCE: PART-1-1                                                                        
          FORCE     EQUILIBRIUM NOT ACHIEVED WITHIN TOLERANCE.

 AVERAGE MOMENT                     2.156E+03   TIME AVG. MOMENT      2.162E+03
 LARGEST RESIDUAL MOMENT             5.80       AT NODE          6   DOF  6
   INSTANCE: PART-1-1                                                                        
 LARGEST INCREMENT OF ROTATION      5.236E-02   AT NODE          1   DOF  6
   INSTANCE: PART-1-1                                                                        
 LARGEST CORRECTION TO ROTATION    -2.366E-03   AT NODE          7   DOF  4
   INSTANCE: PART-1-1                                                                        
 ESTIMATE OF ROTATION CORRECTION   -7.141E-05
 MOMENT    EQUILIB. ACCEPTED BASED ON SMALL RESIDUAL AND ESTIMATED CORRECTION

  NUMBER OF EQUATIONS =       78     NUMBER OF FLOATING PT. OPERATIONS =  1.44E+04

     CHECK POINT   START OF SOLVER    

     CHECK POINT  END OF SOLVER       

       ELAPSED USER TIME (SEC)      =   0.0000    
       ELAPSED SYSTEM TIME (SEC)    =   0.0000    
       ELAPSED TOTAL CPU TIME (SEC) =   0.0000    
       ELAPSED WALLCLOCK TIME (SEC) =          0

               CONVERGENCE CHECKS FOR EQUILIBRIUM ITERATION     2


 AVERAGE FORCE                       343.       TIME AVG. FORCE        582.    
 LARGEST RESIDUAL FORCE              2.44       AT NODE          5   DOF  1
   INSTANCE: PART-1-1                                                                        
 LARGEST INCREMENT OF DISP.        -0.114       AT NODE          7   DOF  3
   INSTANCE: PART-1-1                                                                        
 LARGEST CORRECTION TO DISP.       -9.309E-04   AT NODE          7   DOF  3
   INSTANCE: PART-1-1                                                                        
          THE FORCE     EQUILIBRIUM EQUATIONS HAVE CONVERGED

 AVERAGE MOMENT                     2.282E+03   TIME AVG. MOMENT      2.177E+03
 LARGEST RESIDUAL MOMENT            4.494E-02   AT NODE          8   DOF  5
   INSTANCE: PART-1-1                                                                        
 LARGEST INCREMENT OF ROTATION      5.236E-02   AT NODE          1   DOF  6
   INSTANCE: PART-1-1                                                                        
 LARGEST CORRECTION TO ROTATION     3.155E-04   AT NODE          6   DOF  5
   INSTANCE: PART-1-1                                                                        
          THE MOMENT    EQUILIBRIUM EQUATIONS HAVE CONVERGED

 ITERATION SUMMARY FOR THE INCREMENT:   2 TOTAL ITERATIONS, OF WHICH
   0 ARE SEVERE DISCONTINUITY ITERATIONS AND  2 ARE EQUILIBRIUM ITERATIONS.

 TIME INCREMENT COMPLETED  0.100    ,  FRACTION OF STEP COMPLETED  0.800    
 STEP TIME COMPLETED       0.800    ,  TOTAL TIME COMPLETED         3.80    


  INCREMENT     9 STARTS. ATTEMPT NUMBER  1, TIME INCREMENT  0.100    

  NUMBER OF EQUATIONS =       78     NUMBER OF FLOATING PT. OPERATIONS =  1.44E+04

     CHECK POINT   START OF SOLVER    

     CHECK POINT  END OF SOLVER       

       ELAPSED USER TIME (SEC)      =   0.0000    
       ELAPSED SYSTEM TIME (SEC)    =   0.0000    
       ELAPSED TOTAL CPU TIME (SEC) =   0.0000    
       ELAPSED WALLCLOCK TIME (SEC) =          0

               CONVERGENCE CHECKS FOR EQUILIBRIUM ITERATION     1


 AVERAGE FORCE                       304.       TIME AVG. FORCE        551.    
 LARGEST RESIDUAL FORCE              138.       AT NODE         12   DOF  2
   INSTANCE: PART-1-1                                                                        
 LARGEST INCREMENT OF DISP.        -0.115       AT NODE          7   DOF  3
   INSTANCE: PART-1-1                                                                        
 LARGEST CORRECTION TO DISP.       -8.283E-03   AT NODE          7   DOF  2
   INSTANCE: PART-1-1                                                                        
          FORCE     EQUILIBRIUM NOT ACHIEVED WITHIN TOLERANCE.

 AVERAGE MOMENT                     2.191E+03   TIME AVG. MOMENT      2.179E+03
 LARGEST RESIDUAL MOMENT            -5.55       AT NODE          8   DOF  6
   INSTANCE: PART-1-1                                                                        
 LARGEST INCREMENT OF ROTATION      5.236E-02   AT NODE          1   DOF  6
   INSTANCE: PART-1-1                                                                        
 LARGEST CORRECTION TO ROTATION    -2.450E-03   AT NODE          7   DOF  4
   INSTANCE: PART-1-1                                                                        
 ESTIMATE OF ROTATION CORRECTION   -6.100E-05
 MOMENT    EQUILIB. ACCEPTED BASED ON SMALL RESIDUAL AND ESTIMATED CORRECTION

  NUMBER OF EQUATIONS =       78     NUMBER OF FLOATING PT. OPERATIONS =  1.44E+04

     CHECK POINT   START OF SOLVER    

     CHECK POINT  END OF SOLVER       

       ELAPSED USER TIME (SEC)      =   0.0000    
       ELAPSED SYSTEM TIME (SEC)    =   0.0000    
       ELAPSED TOTAL CPU TIME (SEC) =   0.0000    
       ELAPSED WALLCLOCK TIME (SEC) =          0

               CONVERGENCE CHECKS FOR EQUILIBRIUM ITERATION     2


 AVERAGE FORCE                       297.       TIME AVG. FORCE        550.    
 LARGEST RESIDUAL FORCE             -3.00       AT NODE          8   DOF  2
   INSTANCE: PART-1-1                                                                        
 LARGEST INCREMENT OF DISP.        -0.117       AT NODE          7   DOF  3
   INSTANCE: PART-1-1                                                                        
 LARGEST CORRECTION TO DISP.       -1.185E-03   AT NODE          7   DOF  3
   INSTANCE: PART-1-1                                                                        
          FORCE     EQUILIBRIUM NOT ACHIEVED WITHIN TOLERANCE.

 AVERAGE MOMENT                     2.390E+03   TIME AVG. MOMENT      2.201E+03
 LARGEST RESIDUAL MOMENT           -8.641E-02   AT NODE          6   DOF  5
   INSTANCE: PART-1-1                                                                        
 LARGEST INCREMENT OF ROTATION      5.236E-02   AT NODE          1   DOF  6
   INSTANCE: PART-1-1                                                                        
 LARGEST CORRECTION TO ROTATION    -3.286E-04   AT NODE          8   DOF  5
   INSTANCE: PART-1-1                                                                        
          THE MOMENT    EQUILIBRIUM EQUATIONS HAVE CONVERGED

  NUMBER OF EQUATIONS =       78     NUMBER OF FLOATING PT. OPERATIONS =  1.44E+04

     CHECK POINT   START OF SOLVER    

     CHECK POINT  END OF SOLVER       

       ELAPSED USER TIME (SEC)      =   0.0000    
       ELAPSED SYSTEM TIME (SEC)    =   0.0000    
       ELAPSED TOTAL CPU TIME (SEC) =   0.0000    
       ELAPSED WALLCLOCK TIME (SEC) =          0

               CONVERGENCE CHECKS FOR EQUILIBRIUM ITERATION     3


 AVERAGE FORCE                       840.       TIME AVG. FORCE        611.    
 LARGEST RESIDUAL FORCE             5.097E-03   AT NODE          3   DOF  3
   INSTANCE: PART-1-1                                                                        
 LARGEST INCREMENT OF DISP.        -0.117       AT NODE          7   DOF  3
   INSTANCE: PART-1-1                                                                        
 LARGEST CORRECTION TO DISP.       -2.678E-06   AT NODE          5   DOF  3
   INSTANCE: PART-1-1                                                                        
          THE FORCE     EQUILIBRIUM EQUATIONS HAVE CONVERGED

 AVERAGE MOMENT                     2.464E+03   TIME AVG. MOMENT      2.209E+03
 LARGEST RESIDUAL MOMENT            5.913E-03   AT NODE         10   DOF  4
   INSTANCE: PART-1-1                                                                        
 LARGEST INCREMENT OF ROTATION      5.236E-02   AT NODE          1   DOF  6
   INSTANCE: PART-1-1                                                                        
 LARGEST CORRECTION TO ROTATION    -5.287E-06   AT NODE          4   DOF  5
   INSTANCE: PART-1-1                                                                        
          THE MOMENT    EQUILIBRIUM EQUATIONS HAVE CONVERGED

 ITERATION SUMMARY FOR THE INCREMENT:   3 TOTAL ITERATIONS, OF WHICH
   0 ARE SEVERE DISCONTINUITY ITERATIONS AND  3 ARE EQUILIBRIUM ITERATIONS.

 TIME INCREMENT COMPLETED  0.100    ,  FRACTION OF STEP COMPLETED  0.900    
 STEP TIME COMPLETED       0.900    ,  TOTAL TIME COMPLETED         3.90    


  INCREMENT    10 STARTS. ATTEMPT NUMBER  1, TIME INCREMENT  0.100    

  NUMBER OF EQUATIONS =       78     NUMBER OF FLOATING PT. OPERATIONS =  1.44E+04

     CHECK POINT   START OF SOLVER    

     CHECK POINT  END OF SOLVER       

       ELAPSED USER TIME (SEC)      =   0.0000    
       ELAPSED SYSTEM TIME (SEC)    =   0.0000    
       ELAPSED TOTAL CPU TIME (SEC) =   0.0000    
       ELAPSED WALLCLOCK TIME (SEC) =          0

               CONVERGENCE CHECKS FOR EQUILIBRIUM ITERATION     1


 AVERAGE FORCE                       243.       TIME AVG. FORCE        574.    
 LARGEST RESIDUAL FORCE              139.       AT NODE          2   DOF  2
   INSTANCE: PART-1-1                                                                        
 LARGEST INCREMENT OF DISP.        -0.118       AT NODE          7   DOF  3
   INSTANCE: PART-1-1                                                                        
 LARGEST CORRECTION TO DISP.       -8.613E-03   AT NODE          7   DOF  2
   INSTANCE: PART-1-1                                                                        
          FORCE     EQUILIBRIUM NOT ACHIEVED WITHIN TOLERANCE.

 AVERAGE MOMENT                     2.284E+03   TIME AVG. MOMENT      2.217E+03
 LARGEST RESIDUAL MOMENT             5.25       AT NODE          6   DOF  6
   INSTANCE: PART-1-1                                                                        
 LARGEST INCREMENT OF ROTATION      5.236E-02   AT NODE          1   DOF  6
   INSTANCE: PART-1-1                                                                        
 LARGEST CORRECTION TO ROTATION    -2.452E-03   AT NODE          7   DOF  4
   INSTANCE: PART-1-1                                                                        
 ESTIMATE OF ROTATION CORRECTION    5.013E-05
 MOMENT    EQUILIB. ACCEPTED BASED ON SMALL RESIDUAL AND ESTIMATED CORRECTION

  NUMBER OF EQUATIONS =       78     NUMBER OF FLOATING PT. OPERATIONS =  1.44E+04

     CHECK POINT   START OF SOLVER    

     CHECK POINT  END OF SOLVER       

       ELAPSED USER TIME (SEC)      =   0.0000    
       ELAPSED SYSTEM TIME (SEC)    =   0.0000    
       ELAPSED TOTAL CPU TIME (SEC) =   0.0000    
       ELAPSED WALLCLOCK TIME (SEC) =          0

               CONVERGENCE CHECKS FOR EQUILIBRIUM ITERATION     2


 AVERAGE FORCE                       233.       TIME AVG. FORCE        573.    
 LARGEST RESIDUAL FORCE             -3.70       AT NODE          6   DOF  2
   INSTANCE: PART-1-1                                                                        
 LARGEST INCREMENT OF DISP.        -0.119       AT NODE          7   DOF  3
   INSTANCE: PART-1-1                                                                        
 LARGEST CORRECTION TO DISP.       -1.438E-03   AT NODE          7   DOF  3
   INSTANCE: PART-1-1                                                                        
          FORCE     EQUILIBRIUM NOT ACHIEVED WITHIN TOLERANCE.

 AVERAGE MOMENT                     2.498E+03   TIME AVG. MOMENT      2.238E+03
 LARGEST RESIDUAL MOMENT            0.132       AT NODE         10   DOF  4
   INSTANCE: PART-1-1                                                                        
 LARGEST INCREMENT OF ROTATION      5.236E-02   AT NODE          1   DOF  6
   INSTANCE: PART-1-1                                                                        
 LARGEST CORRECTION TO ROTATION    -4.065E-04   AT NODE          4   DOF  4
   INSTANCE: PART-1-1                                                                        
          THE MOMENT    EQUILIBRIUM EQUATIONS HAVE CONVERGED

  NUMBER OF EQUATIONS =       78     NUMBER OF FLOATING PT. OPERATIONS =  1.44E+04

     CHECK POINT   START OF SOLVER    

     CHECK POINT  END OF SOLVER       

       ELAPSED USER TIME (SEC)      =   0.0000    
       ELAPSED SYSTEM TIME (SEC)    =   0.0000    
       ELAPSED TOTAL CPU TIME (SEC) =   0.0000    
       ELAPSED WALLCLOCK TIME (SEC) =          0

               CONVERGENCE CHECKS FOR EQUILIBRIUM ITERATION     3


 AVERAGE FORCE                       656.       TIME AVG. FORCE        615.    
 LARGEST RESIDUAL FORCE            -3.797E-03   AT NODE          9   DOF  3
   INSTANCE: PART-1-1                                                                        
 LARGEST INCREMENT OF DISP.        -0.119       AT NODE          7   DOF  3
   INSTANCE: PART-1-1                                                                        
 LARGEST CORRECTION TO DISP.        9.358E-06   AT NODE          7   DOF  3
   INSTANCE: PART-1-1                                                                        
          THE FORCE     EQUILIBRIUM EQUATIONS HAVE CONVERGED

 AVERAGE MOMENT                     2.498E+03   TIME AVG. MOMENT      2.238E+03
 LARGEST RESIDUAL MOMENT            2.902E-03   AT NODE          4   DOF  4
   INSTANCE: PART-1-1                                                                        
 LARGEST INCREMENT OF ROTATION      5.236E-02   AT NODE          1   DOF  6
   INSTANCE: PART-1-1                                                                        
 LARGEST CORRECTION TO ROTATION    -3.871E-06   AT NODE          4   DOF  5
   INSTANCE: PART-1-1                                                                        
          THE MOMENT    EQUILIBRIUM EQUATIONS HAVE CONVERGED

 ITERATION SUMMARY FOR THE INCREMENT:   3 TOTAL ITERATIONS, OF WHICH
   0 ARE SEVERE DISCONTINUITY ITERATIONS AND  3 ARE EQUILIBRIUM ITERATIONS.

 TIME INCREMENT COMPLETED  0.100    ,  FRACTION OF STEP COMPLETED   1.00    
 STEP TIME COMPLETED        1.00    ,  TOTAL TIME COMPLETED         4.00    


          THE ANALYSIS HAS BEEN COMPLETED



     ANALYSIS SUMMARY:
     TOTAL OF         57  INCREMENTS
                       0  CUTBACKS IN AUTOMATIC INCREMENTATION
                     191  ITERATIONS INCLUDING CONTACT ITERATIONS IF PRESENT
                     191  PASSES THROUGH THE EQUATION SOLVER OF WHICH 
                     191  INVOLVE MATRIX DECOMPOSITION, INCLUDING
                       0  DECOMPOSITION(S) OF THE MASS MATRIX
                       1  REORDERING OF EQUATIONS TO MINIMIZE WAVEFRONT
                       0  ADDITIONAL RESIDUAL EVALUATIONS FOR LINE SEARCHES
                       0  ADDITIONAL OPERATOR EVALUATIONS FOR LINE SEARCHES
                      14  WARNING MESSAGES DURING USER INPUT PROCESSING
                     132  WARNING MESSAGES DURING ANALYSIS
                      65  ANALYSIS WARNINGS ARE NUMERICAL PROBLEM MESSAGES
                      52  ANALYSIS WARNINGS ARE NEGATIVE EIGENVALUE MESSAGES
                       0  ERROR MESSAGES



     JOB TIME SUMMARY
       USER TIME (SEC)      =   3.8000    
       SYSTEM TIME (SEC)    =   1.6000    
       TOTAL CPU TIME (SEC) =   5.4000    
       WALLCLOCK TIME (SEC) =          8
