 Abaqus/Standard 6.12-1                  DATE 01-déc.-2017 TIME 09:48:09
 SUMMARY OF JOB INFORMATION:
 STEP  INC ATT SEVERE EQUIL TOTAL  TOTAL      STEP       INC OF       DOF    IF
               DISCON ITERS ITERS  TIME/    TIME/LPF    TIME/LPF    MONITOR RIKS
               ITERS               FREQ
   1     1   1     0     3     3  0.0100     0.0100     0.01000   
   1     2   1     0     2     2  0.0200     0.0200     0.01000   
   1     3   1     0     2     2  0.0350     0.0350     0.01500   
   1     4   1     0     2     2  0.0575     0.0575     0.02250   
   1     5   1     0     3     3  0.0912     0.0912     0.03375   
   1     6   1     0     3     3  0.141      0.141      0.05000   
   1     7   1     0     3     3  0.191      0.191      0.05000   
   1     8   1     0     3     3  0.241      0.241      0.05000   
   1     9   1     0     3     3  0.291      0.291      0.05000   
   1    10   1     0     3     3  0.341      0.341      0.05000   
   1    11   1     0     3     3  0.391      0.391      0.05000   
   1    12   1     0     3     3  0.441      0.441      0.05000   
   1    13   1     0     3     3  0.491      0.491      0.05000   
   1    14   1     0     3     3  0.541      0.541      0.05000   
   1    15   1     0     3     3  0.591      0.591      0.05000   
   1    16   1     0     3     3  0.641      0.641      0.05000   
   1    17   1     0     3     3  0.691      0.691      0.05000   
   1    18   1     0     3     3  0.741      0.741      0.05000   
   1    19   1     0     3     3  0.791      0.791      0.05000   
   1    20   1     0     3     3  0.841      0.841      0.05000   
   1    21   1     0     3     3  0.891      0.891      0.05000   
   1    22   1     0     3     3  0.941      0.941      0.05000   
   1    23   1     0     3     3  0.991      0.991      0.05000   
   1    24   1     0     2     2  1.00       1.00       0.008750  
   2     1   1     0     2     2  1.01       0.0100     0.01000   
   2     2   1     0     1     1  1.02       0.0200     0.01000   
   2     3   1     0     1     1  1.03       0.0350     0.01500   
   2     4   1     0     2     2  1.06       0.0575     0.02250   
   2     5   1     0     2     2  1.09       0.0912     0.03375   
   2     6   1     0     3     3  1.14       0.141      0.05000   
   2     7   1     0     3     3  1.19       0.191      0.05000   
   2     8   1     0     3     3  1.24       0.241      0.05000   
   2     9   1     0     3     3  1.29       0.291      0.05000   
   2    10   1     0     3     3  1.34       0.341      0.05000   
   2    11   1     0     3     3  1.39       0.391      0.05000   
   2    12   1     0     3     3  1.44       0.441      0.05000   
   2    13   1     0     3     3  1.49       0.491      0.05000   
   2    14   1     0     3     3  1.54       0.541      0.05000   
   2    15   1     0     3     3  1.59       0.591      0.05000   
   2    16   1     0     3     3  1.64       0.641      0.05000   
   2    17   1     0     4     4  1.69       0.691      0.05000   
   2    18   1     0     4     4  1.74       0.741      0.05000   
   2    19   1     0     5     5  1.79       0.791      0.05000   
   2    20   1     0     6     6  1.84       0.841      0.05000   
   2    21   1     0     4     4  1.89       0.891      0.05000   
   2    22   1     0     4     4  1.94       0.941      0.05000   
   2    23   1     0     5     5  1.99       0.991      0.05000   
   2    24   1     0     3     3  2.00       1.00       0.008750  
   3     1   1     0     3     3  2.01       0.0100     0.01000   
   3     2   1     0     1     1  2.02       0.0200     0.01000   
   3     3   1     0     1     1  2.04       0.0350     0.01500   
   3     4   1     0     2     2  2.06       0.0575     0.02250   
   3     5   1     0     3     3  2.09       0.0912     0.03375   
   3     6   1     0     3     3  2.14       0.141      0.05000   
   3     7   1     0     3     3  2.19       0.191      0.05000   
   3     8   1     0     4     4  2.24       0.241      0.05000   
   3     9   1     0     5     5  2.29       0.291      0.05000   
   3    10   1     0     6     6  2.34       0.341      0.05000   
   3    11   1     0     6     6  2.39       0.391      0.05000   
   3    12   1     0     4     4  2.44       0.441      0.05000   
   3    13   1     0     4     4  2.49       0.491      0.05000   
   3    14   1     0     3     3  2.54       0.541      0.05000   
   3    15   1     0     3     3  2.59       0.591      0.05000   
   3    16   1     0     3     3  2.64       0.641      0.05000   
   3    17   1     0     3     3  2.69       0.691      0.05000   
   3    18   1     0     3     3  2.74       0.741      0.05000   
   3    19   1     0     3     3  2.79       0.791      0.05000   
   3    20   1     0     3     3  2.84       0.841      0.05000   
   3    21   1     0     3     3  2.89       0.891      0.05000   
   3    22   1     0     3     3  2.94       0.941      0.05000   
   3    23   1     0     3     3  2.99       0.991      0.05000   
   3    24   1     0     1     1  3.00       1.00       0.008750  
   4     1   1     0     2     2  3.01       0.0100     0.01000   
   4     2   1     0     1     1  3.02       0.0200     0.01000   
   4     3   1     0     1     1  3.03       0.0350     0.01500   
   4     4   1     0     1     1  3.06       0.0575     0.02250   
   4     5   1     0     1     1  3.09       0.0912     0.03375   
   4     6   1     0     1     1  3.14       0.141      0.05000   
   4     7   1     0     1     1  3.19       0.191      0.05000   
   4     8   1     0     1     1  3.24       0.241      0.05000   
   4     9   1     0     1     1  3.29       0.291      0.05000   
   4    10   1     0     1     1  3.34       0.341      0.05000   
   4    11   1     0     1     1  3.39       0.391      0.05000   
   4    12   1     0     1     1  3.44       0.441      0.05000   
   4    13   1     0     1     1  3.49       0.491      0.05000   
   4    14   1     0     1     1  3.54       0.541      0.05000   
   4    15   1     0     1     1  3.59       0.591      0.05000   
   4    16   1     0     1     1  3.64       0.641      0.05000   
   4    17   1     0     1     1  3.69       0.691      0.05000   
   4    18   1     0     1     1  3.74       0.741      0.05000   
   4    19   1     0     1     1  3.79       0.791      0.05000   
   4    20   1     0     1     1  3.84       0.841      0.05000   
   4    21   1     0     1     1  3.89       0.891      0.05000   
   4    22   1     0     1     1  3.94       0.941      0.05000   
   4    23   1     0     1     1  3.99       0.991      0.05000   
   4    24   1     0     1     1  4.00       1.00       0.008750  
                          
 THE ANALYSIS HAS COMPLETED SUCCESSFULLY
